version 2
run OneHot-0-20210126-11:43:04-76346
attr configname OneHot
attr datetime 20210126-11:43:04
attr experiment OneHot
attr inifile is1_3l_32n.ini
attr iterationvars ""
attr iterationvars2 $repetition=0
attr measurement ""
attr network ib_model.examples.is1_3l_32n.is1_3l_32n
attr processid 76346
attr repetition 0
attr replication #0
attr resultdir results
attr runnumber 0
attr seedset 0

scalar is1_3l_32n.H_1_U1.sink 	"Time last packet consumed:" 	0
statistic is1_3l_32n.H_1_U1.sink 	"Waiting time statistics"
field count 0
field mean 0
field stddev -nan
field sum 0
field sqrsum 0
field min 0
field max 0
statistic is1_3l_32n.H_1_U1.sink 	"Packet Fabric Time"
field count 0
field mean 0
field stddev -nan
field sum 0
field sqrsum 0
field min 0
field max 0
bin	-INF	0
bin	0	0
bin	0.033333333333333	0
bin	0.066666666666667	0
bin	0.1	0
bin	0.13333333333333	0
bin	0.16666666666667	0
bin	0.2	0
bin	0.23333333333333	0
bin	0.26666666666667	0
bin	0.3	0
bin	0.33333333333333	0
bin	0.36666666666667	0
bin	0.4	0
bin	0.43333333333333	0
bin	0.46666666666667	0
bin	0.5	0
bin	0.53333333333333	0
bin	0.56666666666667	0
bin	0.6	0
bin	0.63333333333333	0
bin	0.66666666666667	0
bin	0.7	0
bin	0.73333333333333	0
bin	0.76666666666667	0
bin	0.8	0
bin	0.83333333333333	0
bin	0.86666666666667	0
bin	0.9	0
bin	0.93333333333333	0
bin	0.96666666666667	0
bin	1	0
statistic is1_3l_32n.H_1_U1.sink 	Msg-Network-Latency
field count 0
field mean 0
field stddev -nan
field sum 0
field sqrsum 0
field min 0
field max 0
bin	-INF	0
bin	-0.5	0
bin	-0.46666666666667	0
bin	-0.43333333333333	0
bin	-0.4	0
bin	-0.36666666666667	0
bin	-0.33333333333333	0
bin	-0.3	0
bin	-0.26666666666667	0
bin	-0.23333333333333	0
bin	-0.2	0
bin	-0.16666666666667	0
bin	-0.13333333333333	0
bin	-0.1	0
bin	-0.066666666666667	0
bin	-0.033333333333333	0
bin	0	0
bin	0.033333333333333	0
bin	0.066666666666667	0
bin	0.1	0
bin	0.13333333333333	0
bin	0.16666666666667	0
bin	0.2	0
bin	0.23333333333333	0
bin	0.26666666666667	0
bin	0.3	0
bin	0.33333333333333	0
bin	0.36666666666667	0
bin	0.4	0
bin	0.43333333333333	0
bin	0.46666666666667	0
bin	0.5	0
statistic is1_3l_32n.H_1_U1.sink 	Small-Msg-Network-Latency
field count 0
field mean 0
field stddev -nan
field sum 0
field sqrsum 0
field min 0
field max 0
bin	-INF	0
bin	-0.5	0
bin	-0.46666666666667	0
bin	-0.43333333333333	0
bin	-0.4	0
bin	-0.36666666666667	0
bin	-0.33333333333333	0
bin	-0.3	0
bin	-0.26666666666667	0
bin	-0.23333333333333	0
bin	-0.2	0
bin	-0.16666666666667	0
bin	-0.13333333333333	0
bin	-0.1	0
bin	-0.066666666666667	0
bin	-0.033333333333333	0
bin	0	0
bin	0.033333333333333	0
bin	0.066666666666667	0
bin	0.1	0
bin	0.13333333333333	0
bin	0.16666666666667	0
bin	0.2	0
bin	0.23333333333333	0
bin	0.26666666666667	0
bin	0.3	0
bin	0.33333333333333	0
bin	0.36666666666667	0
bin	0.4	0
bin	0.43333333333333	0
bin	0.46666666666667	0
bin	0.5	0
statistic is1_3l_32n.H_1_U1.sink 	Msg-First2First-Network-Latency
field count 0
field mean 0
field stddev -nan
field sum 0
field sqrsum 0
field min 0
field max 0
bin	-INF	0
bin	-0.5	0
bin	-0.46666666666667	0
bin	-0.43333333333333	0
bin	-0.4	0
bin	-0.36666666666667	0
bin	-0.33333333333333	0
bin	-0.3	0
bin	-0.26666666666667	0
bin	-0.23333333333333	0
bin	-0.2	0
bin	-0.16666666666667	0
bin	-0.13333333333333	0
bin	-0.1	0
bin	-0.066666666666667	0
bin	-0.033333333333333	0
bin	0	0
bin	0.033333333333333	0
bin	0.066666666666667	0
bin	0.1	0
bin	0.13333333333333	0
bin	0.16666666666667	0
bin	0.2	0
bin	0.23333333333333	0
bin	0.26666666666667	0
bin	0.3	0
bin	0.33333333333333	0
bin	0.36666666666667	0
bin	0.4	0
bin	0.43333333333333	0
bin	0.46666666666667	0
bin	0.5	0
statistic is1_3l_32n.H_1_U1.sink 	Enough-Pkts-Network-Latency
field count 0
field mean 0
field stddev -nan
field sum 0
field sqrsum 0
field min 0
field max 0
bin	-INF	0
bin	-0.5	0
bin	-0.46666666666667	0
bin	-0.43333333333333	0
bin	-0.4	0
bin	-0.36666666666667	0
bin	-0.33333333333333	0
bin	-0.3	0
bin	-0.26666666666667	0
bin	-0.23333333333333	0
bin	-0.2	0
bin	-0.16666666666667	0
bin	-0.13333333333333	0
bin	-0.1	0
bin	-0.066666666666667	0
bin	-0.033333333333333	0
bin	0	0
bin	0.033333333333333	0
bin	0.066666666666667	0
bin	0.1	0
bin	0.13333333333333	0
bin	0.16666666666667	0
bin	0.2	0
bin	0.23333333333333	0
bin	0.26666666666667	0
bin	0.3	0
bin	0.33333333333333	0
bin	0.36666666666667	0
bin	0.4	0
bin	0.43333333333333	0
bin	0.46666666666667	0
bin	0.5	0
statistic is1_3l_32n.H_1_U1.sink 	Last-to-Enough-Pkt-Arrival
field count 0
field mean 0
field stddev -nan
field sum 0
field sqrsum 0
field min 0
field max 0
scalar is1_3l_32n.H_1_U1.sink 	Sink-BW-MBps 	-0
scalar is1_3l_32n.H_1_U1.sink 	VL-0-total-flits 	0
statistic is1_3l_32n.H_1_U1.sink 	OOO-Window-Pkts
field count 0
field mean 0
field stddev -nan
field sum 0
field sqrsum 0
field min 0
field max 0
scalar is1_3l_32n.H_1_U1.sink 	OO-IO-Packets-Ratio 	-nan
scalar is1_3l_32n.H_1_U1.sink 	Num-SRCs 	0
scalar is1_3l_32n.H_1_U1.obuf 	"Output BW (Byte/s)" 	inf
scalar is1_3l_32n.H_1_U1.obuf 	"Output BW (MB/s)" 	inf
statistic is1_3l_32n.H_1_U1.obuf 	"Flits Sources"
field count 0
field mean 0
field stddev -nan
field sum 0
field sqrsum 0
field min 0
field max 0
scalar is1_3l_32n.H_10_U1.sink 	"Time last packet consumed:" 	0
statistic is1_3l_32n.H_10_U1.sink 	"Waiting time statistics"
field count 0
field mean 0
field stddev -nan
field sum 0
field sqrsum 0
field min 0
field max 0
statistic is1_3l_32n.H_10_U1.sink 	"Packet Fabric Time"
field count 0
field mean 0
field stddev -nan
field sum 0
field sqrsum 0
field min 0
field max 0
bin	-INF	0
bin	0	0
bin	0.033333333333333	0
bin	0.066666666666667	0
bin	0.1	0
bin	0.13333333333333	0
bin	0.16666666666667	0
bin	0.2	0
bin	0.23333333333333	0
bin	0.26666666666667	0
bin	0.3	0
bin	0.33333333333333	0
bin	0.36666666666667	0
bin	0.4	0
bin	0.43333333333333	0
bin	0.46666666666667	0
bin	0.5	0
bin	0.53333333333333	0
bin	0.56666666666667	0
bin	0.6	0
bin	0.63333333333333	0
bin	0.66666666666667	0
bin	0.7	0
bin	0.73333333333333	0
bin	0.76666666666667	0
bin	0.8	0
bin	0.83333333333333	0
bin	0.86666666666667	0
bin	0.9	0
bin	0.93333333333333	0
bin	0.96666666666667	0
bin	1	0
statistic is1_3l_32n.H_10_U1.sink 	Msg-Network-Latency
field count 0
field mean 0
field stddev -nan
field sum 0
field sqrsum 0
field min 0
field max 0
bin	-INF	0
bin	-0.5	0
bin	-0.46666666666667	0
bin	-0.43333333333333	0
bin	-0.4	0
bin	-0.36666666666667	0
bin	-0.33333333333333	0
bin	-0.3	0
bin	-0.26666666666667	0
bin	-0.23333333333333	0
bin	-0.2	0
bin	-0.16666666666667	0
bin	-0.13333333333333	0
bin	-0.1	0
bin	-0.066666666666667	0
bin	-0.033333333333333	0
bin	0	0
bin	0.033333333333333	0
bin	0.066666666666667	0
bin	0.1	0
bin	0.13333333333333	0
bin	0.16666666666667	0
bin	0.2	0
bin	0.23333333333333	0
bin	0.26666666666667	0
bin	0.3	0
bin	0.33333333333333	0
bin	0.36666666666667	0
bin	0.4	0
bin	0.43333333333333	0
bin	0.46666666666667	0
bin	0.5	0
statistic is1_3l_32n.H_10_U1.sink 	Small-Msg-Network-Latency
field count 0
field mean 0
field stddev -nan
field sum 0
field sqrsum 0
field min 0
field max 0
bin	-INF	0
bin	-0.5	0
bin	-0.46666666666667	0
bin	-0.43333333333333	0
bin	-0.4	0
bin	-0.36666666666667	0
bin	-0.33333333333333	0
bin	-0.3	0
bin	-0.26666666666667	0
bin	-0.23333333333333	0
bin	-0.2	0
bin	-0.16666666666667	0
bin	-0.13333333333333	0
bin	-0.1	0
bin	-0.066666666666667	0
bin	-0.033333333333333	0
bin	0	0
bin	0.033333333333333	0
bin	0.066666666666667	0
bin	0.1	0
bin	0.13333333333333	0
bin	0.16666666666667	0
bin	0.2	0
bin	0.23333333333333	0
bin	0.26666666666667	0
bin	0.3	0
bin	0.33333333333333	0
bin	0.36666666666667	0
bin	0.4	0
bin	0.43333333333333	0
bin	0.46666666666667	0
bin	0.5	0
statistic is1_3l_32n.H_10_U1.sink 	Msg-First2First-Network-Latency
field count 0
field mean 0
field stddev -nan
field sum 0
field sqrsum 0
field min 0
field max 0
bin	-INF	0
bin	-0.5	0
bin	-0.46666666666667	0
bin	-0.43333333333333	0
bin	-0.4	0
bin	-0.36666666666667	0
bin	-0.33333333333333	0
bin	-0.3	0
bin	-0.26666666666667	0
bin	-0.23333333333333	0
bin	-0.2	0
bin	-0.16666666666667	0
bin	-0.13333333333333	0
bin	-0.1	0
bin	-0.066666666666667	0
bin	-0.033333333333333	0
bin	0	0
bin	0.033333333333333	0
bin	0.066666666666667	0
bin	0.1	0
bin	0.13333333333333	0
bin	0.16666666666667	0
bin	0.2	0
bin	0.23333333333333	0
bin	0.26666666666667	0
bin	0.3	0
bin	0.33333333333333	0
bin	0.36666666666667	0
bin	0.4	0
bin	0.43333333333333	0
bin	0.46666666666667	0
bin	0.5	0
statistic is1_3l_32n.H_10_U1.sink 	Enough-Pkts-Network-Latency
field count 0
field mean 0
field stddev -nan
field sum 0
field sqrsum 0
field min 0
field max 0
bin	-INF	0
bin	-0.5	0
bin	-0.46666666666667	0
bin	-0.43333333333333	0
bin	-0.4	0
bin	-0.36666666666667	0
bin	-0.33333333333333	0
bin	-0.3	0
bin	-0.26666666666667	0
bin	-0.23333333333333	0
bin	-0.2	0
bin	-0.16666666666667	0
bin	-0.13333333333333	0
bin	-0.1	0
bin	-0.066666666666667	0
bin	-0.033333333333333	0
bin	0	0
bin	0.033333333333333	0
bin	0.066666666666667	0
bin	0.1	0
bin	0.13333333333333	0
bin	0.16666666666667	0
bin	0.2	0
bin	0.23333333333333	0
bin	0.26666666666667	0
bin	0.3	0
bin	0.33333333333333	0
bin	0.36666666666667	0
bin	0.4	0
bin	0.43333333333333	0
bin	0.46666666666667	0
bin	0.5	0
statistic is1_3l_32n.H_10_U1.sink 	Last-to-Enough-Pkt-Arrival
field count 0
field mean 0
field stddev -nan
field sum 0
field sqrsum 0
field min 0
field max 0
scalar is1_3l_32n.H_10_U1.sink 	Sink-BW-MBps 	-0
scalar is1_3l_32n.H_10_U1.sink 	VL-0-total-flits 	0
statistic is1_3l_32n.H_10_U1.sink 	OOO-Window-Pkts
field count 0
field mean 0
field stddev -nan
field sum 0
field sqrsum 0
field min 0
field max 0
scalar is1_3l_32n.H_10_U1.sink 	OO-IO-Packets-Ratio 	-nan
scalar is1_3l_32n.H_10_U1.sink 	Num-SRCs 	0
scalar is1_3l_32n.H_10_U1.obuf 	"Output BW (Byte/s)" 	inf
scalar is1_3l_32n.H_10_U1.obuf 	"Output BW (MB/s)" 	inf
statistic is1_3l_32n.H_10_U1.obuf 	"Flits Sources"
field count 0
field mean 0
field stddev -nan
field sum 0
field sqrsum 0
field min 0
field max 0
scalar is1_3l_32n.H_11_U1.sink 	"Time last packet consumed:" 	0
statistic is1_3l_32n.H_11_U1.sink 	"Waiting time statistics"
field count 0
field mean 0
field stddev -nan
field sum 0
field sqrsum 0
field min 0
field max 0
statistic is1_3l_32n.H_11_U1.sink 	"Packet Fabric Time"
field count 0
field mean 0
field stddev -nan
field sum 0
field sqrsum 0
field min 0
field max 0
bin	-INF	0
bin	0	0
bin	0.033333333333333	0
bin	0.066666666666667	0
bin	0.1	0
bin	0.13333333333333	0
bin	0.16666666666667	0
bin	0.2	0
bin	0.23333333333333	0
bin	0.26666666666667	0
bin	0.3	0
bin	0.33333333333333	0
bin	0.36666666666667	0
bin	0.4	0
bin	0.43333333333333	0
bin	0.46666666666667	0
bin	0.5	0
bin	0.53333333333333	0
bin	0.56666666666667	0
bin	0.6	0
bin	0.63333333333333	0
bin	0.66666666666667	0
bin	0.7	0
bin	0.73333333333333	0
bin	0.76666666666667	0
bin	0.8	0
bin	0.83333333333333	0
bin	0.86666666666667	0
bin	0.9	0
bin	0.93333333333333	0
bin	0.96666666666667	0
bin	1	0
statistic is1_3l_32n.H_11_U1.sink 	Msg-Network-Latency
field count 0
field mean 0
field stddev -nan
field sum 0
field sqrsum 0
field min 0
field max 0
bin	-INF	0
bin	-0.5	0
bin	-0.46666666666667	0
bin	-0.43333333333333	0
bin	-0.4	0
bin	-0.36666666666667	0
bin	-0.33333333333333	0
bin	-0.3	0
bin	-0.26666666666667	0
bin	-0.23333333333333	0
bin	-0.2	0
bin	-0.16666666666667	0
bin	-0.13333333333333	0
bin	-0.1	0
bin	-0.066666666666667	0
bin	-0.033333333333333	0
bin	0	0
bin	0.033333333333333	0
bin	0.066666666666667	0
bin	0.1	0
bin	0.13333333333333	0
bin	0.16666666666667	0
bin	0.2	0
bin	0.23333333333333	0
bin	0.26666666666667	0
bin	0.3	0
bin	0.33333333333333	0
bin	0.36666666666667	0
bin	0.4	0
bin	0.43333333333333	0
bin	0.46666666666667	0
bin	0.5	0
statistic is1_3l_32n.H_11_U1.sink 	Small-Msg-Network-Latency
field count 0
field mean 0
field stddev -nan
field sum 0
field sqrsum 0
field min 0
field max 0
bin	-INF	0
bin	-0.5	0
bin	-0.46666666666667	0
bin	-0.43333333333333	0
bin	-0.4	0
bin	-0.36666666666667	0
bin	-0.33333333333333	0
bin	-0.3	0
bin	-0.26666666666667	0
bin	-0.23333333333333	0
bin	-0.2	0
bin	-0.16666666666667	0
bin	-0.13333333333333	0
bin	-0.1	0
bin	-0.066666666666667	0
bin	-0.033333333333333	0
bin	0	0
bin	0.033333333333333	0
bin	0.066666666666667	0
bin	0.1	0
bin	0.13333333333333	0
bin	0.16666666666667	0
bin	0.2	0
bin	0.23333333333333	0
bin	0.26666666666667	0
bin	0.3	0
bin	0.33333333333333	0
bin	0.36666666666667	0
bin	0.4	0
bin	0.43333333333333	0
bin	0.46666666666667	0
bin	0.5	0
statistic is1_3l_32n.H_11_U1.sink 	Msg-First2First-Network-Latency
field count 0
field mean 0
field stddev -nan
field sum 0
field sqrsum 0
field min 0
field max 0
bin	-INF	0
bin	-0.5	0
bin	-0.46666666666667	0
bin	-0.43333333333333	0
bin	-0.4	0
bin	-0.36666666666667	0
bin	-0.33333333333333	0
bin	-0.3	0
bin	-0.26666666666667	0
bin	-0.23333333333333	0
bin	-0.2	0
bin	-0.16666666666667	0
bin	-0.13333333333333	0
bin	-0.1	0
bin	-0.066666666666667	0
bin	-0.033333333333333	0
bin	0	0
bin	0.033333333333333	0
bin	0.066666666666667	0
bin	0.1	0
bin	0.13333333333333	0
bin	0.16666666666667	0
bin	0.2	0
bin	0.23333333333333	0
bin	0.26666666666667	0
bin	0.3	0
bin	0.33333333333333	0
bin	0.36666666666667	0
bin	0.4	0
bin	0.43333333333333	0
bin	0.46666666666667	0
bin	0.5	0
statistic is1_3l_32n.H_11_U1.sink 	Enough-Pkts-Network-Latency
field count 0
field mean 0
field stddev -nan
field sum 0
field sqrsum 0
field min 0
field max 0
bin	-INF	0
bin	-0.5	0
bin	-0.46666666666667	0
bin	-0.43333333333333	0
bin	-0.4	0
bin	-0.36666666666667	0
bin	-0.33333333333333	0
bin	-0.3	0
bin	-0.26666666666667	0
bin	-0.23333333333333	0
bin	-0.2	0
bin	-0.16666666666667	0
bin	-0.13333333333333	0
bin	-0.1	0
bin	-0.066666666666667	0
bin	-0.033333333333333	0
bin	0	0
bin	0.033333333333333	0
bin	0.066666666666667	0
bin	0.1	0
bin	0.13333333333333	0
bin	0.16666666666667	0
bin	0.2	0
bin	0.23333333333333	0
bin	0.26666666666667	0
bin	0.3	0
bin	0.33333333333333	0
bin	0.36666666666667	0
bin	0.4	0
bin	0.43333333333333	0
bin	0.46666666666667	0
bin	0.5	0
statistic is1_3l_32n.H_11_U1.sink 	Last-to-Enough-Pkt-Arrival
field count 0
field mean 0
field stddev -nan
field sum 0
field sqrsum 0
field min 0
field max 0
scalar is1_3l_32n.H_11_U1.sink 	Sink-BW-MBps 	-0
scalar is1_3l_32n.H_11_U1.sink 	VL-0-total-flits 	0
statistic is1_3l_32n.H_11_U1.sink 	OOO-Window-Pkts
field count 0
field mean 0
field stddev -nan
field sum 0
field sqrsum 0
field min 0
field max 0
scalar is1_3l_32n.H_11_U1.sink 	OO-IO-Packets-Ratio 	-nan
scalar is1_3l_32n.H_11_U1.sink 	Num-SRCs 	0
scalar is1_3l_32n.H_11_U1.obuf 	"Output BW (Byte/s)" 	inf
scalar is1_3l_32n.H_11_U1.obuf 	"Output BW (MB/s)" 	inf
statistic is1_3l_32n.H_11_U1.obuf 	"Flits Sources"
field count 0
field mean 0
field stddev -nan
field sum 0
field sqrsum 0
field min 0
field max 0
scalar is1_3l_32n.H_12_U1.sink 	"Time last packet consumed:" 	0
statistic is1_3l_32n.H_12_U1.sink 	"Waiting time statistics"
field count 0
field mean 0
field stddev -nan
field sum 0
field sqrsum 0
field min 0
field max 0
statistic is1_3l_32n.H_12_U1.sink 	"Packet Fabric Time"
field count 0
field mean 0
field stddev -nan
field sum 0
field sqrsum 0
field min 0
field max 0
bin	-INF	0
bin	0	0
bin	0.033333333333333	0
bin	0.066666666666667	0
bin	0.1	0
bin	0.13333333333333	0
bin	0.16666666666667	0
bin	0.2	0
bin	0.23333333333333	0
bin	0.26666666666667	0
bin	0.3	0
bin	0.33333333333333	0
bin	0.36666666666667	0
bin	0.4	0
bin	0.43333333333333	0
bin	0.46666666666667	0
bin	0.5	0
bin	0.53333333333333	0
bin	0.56666666666667	0
bin	0.6	0
bin	0.63333333333333	0
bin	0.66666666666667	0
bin	0.7	0
bin	0.73333333333333	0
bin	0.76666666666667	0
bin	0.8	0
bin	0.83333333333333	0
bin	0.86666666666667	0
bin	0.9	0
bin	0.93333333333333	0
bin	0.96666666666667	0
bin	1	0
statistic is1_3l_32n.H_12_U1.sink 	Msg-Network-Latency
field count 0
field mean 0
field stddev -nan
field sum 0
field sqrsum 0
field min 0
field max 0
bin	-INF	0
bin	-0.5	0
bin	-0.46666666666667	0
bin	-0.43333333333333	0
bin	-0.4	0
bin	-0.36666666666667	0
bin	-0.33333333333333	0
bin	-0.3	0
bin	-0.26666666666667	0
bin	-0.23333333333333	0
bin	-0.2	0
bin	-0.16666666666667	0
bin	-0.13333333333333	0
bin	-0.1	0
bin	-0.066666666666667	0
bin	-0.033333333333333	0
bin	0	0
bin	0.033333333333333	0
bin	0.066666666666667	0
bin	0.1	0
bin	0.13333333333333	0
bin	0.16666666666667	0
bin	0.2	0
bin	0.23333333333333	0
bin	0.26666666666667	0
bin	0.3	0
bin	0.33333333333333	0
bin	0.36666666666667	0
bin	0.4	0
bin	0.43333333333333	0
bin	0.46666666666667	0
bin	0.5	0
statistic is1_3l_32n.H_12_U1.sink 	Small-Msg-Network-Latency
field count 0
field mean 0
field stddev -nan
field sum 0
field sqrsum 0
field min 0
field max 0
bin	-INF	0
bin	-0.5	0
bin	-0.46666666666667	0
bin	-0.43333333333333	0
bin	-0.4	0
bin	-0.36666666666667	0
bin	-0.33333333333333	0
bin	-0.3	0
bin	-0.26666666666667	0
bin	-0.23333333333333	0
bin	-0.2	0
bin	-0.16666666666667	0
bin	-0.13333333333333	0
bin	-0.1	0
bin	-0.066666666666667	0
bin	-0.033333333333333	0
bin	0	0
bin	0.033333333333333	0
bin	0.066666666666667	0
bin	0.1	0
bin	0.13333333333333	0
bin	0.16666666666667	0
bin	0.2	0
bin	0.23333333333333	0
bin	0.26666666666667	0
bin	0.3	0
bin	0.33333333333333	0
bin	0.36666666666667	0
bin	0.4	0
bin	0.43333333333333	0
bin	0.46666666666667	0
bin	0.5	0
statistic is1_3l_32n.H_12_U1.sink 	Msg-First2First-Network-Latency
field count 0
field mean 0
field stddev -nan
field sum 0
field sqrsum 0
field min 0
field max 0
bin	-INF	0
bin	-0.5	0
bin	-0.46666666666667	0
bin	-0.43333333333333	0
bin	-0.4	0
bin	-0.36666666666667	0
bin	-0.33333333333333	0
bin	-0.3	0
bin	-0.26666666666667	0
bin	-0.23333333333333	0
bin	-0.2	0
bin	-0.16666666666667	0
bin	-0.13333333333333	0
bin	-0.1	0
bin	-0.066666666666667	0
bin	-0.033333333333333	0
bin	0	0
bin	0.033333333333333	0
bin	0.066666666666667	0
bin	0.1	0
bin	0.13333333333333	0
bin	0.16666666666667	0
bin	0.2	0
bin	0.23333333333333	0
bin	0.26666666666667	0
bin	0.3	0
bin	0.33333333333333	0
bin	0.36666666666667	0
bin	0.4	0
bin	0.43333333333333	0
bin	0.46666666666667	0
bin	0.5	0
statistic is1_3l_32n.H_12_U1.sink 	Enough-Pkts-Network-Latency
field count 0
field mean 0
field stddev -nan
field sum 0
field sqrsum 0
field min 0
field max 0
bin	-INF	0
bin	-0.5	0
bin	-0.46666666666667	0
bin	-0.43333333333333	0
bin	-0.4	0
bin	-0.36666666666667	0
bin	-0.33333333333333	0
bin	-0.3	0
bin	-0.26666666666667	0
bin	-0.23333333333333	0
bin	-0.2	0
bin	-0.16666666666667	0
bin	-0.13333333333333	0
bin	-0.1	0
bin	-0.066666666666667	0
bin	-0.033333333333333	0
bin	0	0
bin	0.033333333333333	0
bin	0.066666666666667	0
bin	0.1	0
bin	0.13333333333333	0
bin	0.16666666666667	0
bin	0.2	0
bin	0.23333333333333	0
bin	0.26666666666667	0
bin	0.3	0
bin	0.33333333333333	0
bin	0.36666666666667	0
bin	0.4	0
bin	0.43333333333333	0
bin	0.46666666666667	0
bin	0.5	0
statistic is1_3l_32n.H_12_U1.sink 	Last-to-Enough-Pkt-Arrival
field count 0
field mean 0
field stddev -nan
field sum 0
field sqrsum 0
field min 0
field max 0
scalar is1_3l_32n.H_12_U1.sink 	Sink-BW-MBps 	-0
scalar is1_3l_32n.H_12_U1.sink 	VL-0-total-flits 	0
statistic is1_3l_32n.H_12_U1.sink 	OOO-Window-Pkts
field count 0
field mean 0
field stddev -nan
field sum 0
field sqrsum 0
field min 0
field max 0
scalar is1_3l_32n.H_12_U1.sink 	OO-IO-Packets-Ratio 	-nan
scalar is1_3l_32n.H_12_U1.sink 	Num-SRCs 	0
scalar is1_3l_32n.H_12_U1.obuf 	"Output BW (Byte/s)" 	inf
scalar is1_3l_32n.H_12_U1.obuf 	"Output BW (MB/s)" 	inf
statistic is1_3l_32n.H_12_U1.obuf 	"Flits Sources"
field count 0
field mean 0
field stddev -nan
field sum 0
field sqrsum 0
field min 0
field max 0
scalar is1_3l_32n.H_13_U1.sink 	"Time last packet consumed:" 	0
statistic is1_3l_32n.H_13_U1.sink 	"Waiting time statistics"
field count 0
field mean 0
field stddev -nan
field sum 0
field sqrsum 0
field min 0
field max 0
statistic is1_3l_32n.H_13_U1.sink 	"Packet Fabric Time"
field count 0
field mean 0
field stddev -nan
field sum 0
field sqrsum 0
field min 0
field max 0
bin	-INF	0
bin	0	0
bin	0.033333333333333	0
bin	0.066666666666667	0
bin	0.1	0
bin	0.13333333333333	0
bin	0.16666666666667	0
bin	0.2	0
bin	0.23333333333333	0
bin	0.26666666666667	0
bin	0.3	0
bin	0.33333333333333	0
bin	0.36666666666667	0
bin	0.4	0
bin	0.43333333333333	0
bin	0.46666666666667	0
bin	0.5	0
bin	0.53333333333333	0
bin	0.56666666666667	0
bin	0.6	0
bin	0.63333333333333	0
bin	0.66666666666667	0
bin	0.7	0
bin	0.73333333333333	0
bin	0.76666666666667	0
bin	0.8	0
bin	0.83333333333333	0
bin	0.86666666666667	0
bin	0.9	0
bin	0.93333333333333	0
bin	0.96666666666667	0
bin	1	0
statistic is1_3l_32n.H_13_U1.sink 	Msg-Network-Latency
field count 0
field mean 0
field stddev -nan
field sum 0
field sqrsum 0
field min 0
field max 0
bin	-INF	0
bin	-0.5	0
bin	-0.46666666666667	0
bin	-0.43333333333333	0
bin	-0.4	0
bin	-0.36666666666667	0
bin	-0.33333333333333	0
bin	-0.3	0
bin	-0.26666666666667	0
bin	-0.23333333333333	0
bin	-0.2	0
bin	-0.16666666666667	0
bin	-0.13333333333333	0
bin	-0.1	0
bin	-0.066666666666667	0
bin	-0.033333333333333	0
bin	0	0
bin	0.033333333333333	0
bin	0.066666666666667	0
bin	0.1	0
bin	0.13333333333333	0
bin	0.16666666666667	0
bin	0.2	0
bin	0.23333333333333	0
bin	0.26666666666667	0
bin	0.3	0
bin	0.33333333333333	0
bin	0.36666666666667	0
bin	0.4	0
bin	0.43333333333333	0
bin	0.46666666666667	0
bin	0.5	0
statistic is1_3l_32n.H_13_U1.sink 	Small-Msg-Network-Latency
field count 0
field mean 0
field stddev -nan
field sum 0
field sqrsum 0
field min 0
field max 0
bin	-INF	0
bin	-0.5	0
bin	-0.46666666666667	0
bin	-0.43333333333333	0
bin	-0.4	0
bin	-0.36666666666667	0
bin	-0.33333333333333	0
bin	-0.3	0
bin	-0.26666666666667	0
bin	-0.23333333333333	0
bin	-0.2	0
bin	-0.16666666666667	0
bin	-0.13333333333333	0
bin	-0.1	0
bin	-0.066666666666667	0
bin	-0.033333333333333	0
bin	0	0
bin	0.033333333333333	0
bin	0.066666666666667	0
bin	0.1	0
bin	0.13333333333333	0
bin	0.16666666666667	0
bin	0.2	0
bin	0.23333333333333	0
bin	0.26666666666667	0
bin	0.3	0
bin	0.33333333333333	0
bin	0.36666666666667	0
bin	0.4	0
bin	0.43333333333333	0
bin	0.46666666666667	0
bin	0.5	0
statistic is1_3l_32n.H_13_U1.sink 	Msg-First2First-Network-Latency
field count 0
field mean 0
field stddev -nan
field sum 0
field sqrsum 0
field min 0
field max 0
bin	-INF	0
bin	-0.5	0
bin	-0.46666666666667	0
bin	-0.43333333333333	0
bin	-0.4	0
bin	-0.36666666666667	0
bin	-0.33333333333333	0
bin	-0.3	0
bin	-0.26666666666667	0
bin	-0.23333333333333	0
bin	-0.2	0
bin	-0.16666666666667	0
bin	-0.13333333333333	0
bin	-0.1	0
bin	-0.066666666666667	0
bin	-0.033333333333333	0
bin	0	0
bin	0.033333333333333	0
bin	0.066666666666667	0
bin	0.1	0
bin	0.13333333333333	0
bin	0.16666666666667	0
bin	0.2	0
bin	0.23333333333333	0
bin	0.26666666666667	0
bin	0.3	0
bin	0.33333333333333	0
bin	0.36666666666667	0
bin	0.4	0
bin	0.43333333333333	0
bin	0.46666666666667	0
bin	0.5	0
statistic is1_3l_32n.H_13_U1.sink 	Enough-Pkts-Network-Latency
field count 0
field mean 0
field stddev -nan
field sum 0
field sqrsum 0
field min 0
field max 0
bin	-INF	0
bin	-0.5	0
bin	-0.46666666666667	0
bin	-0.43333333333333	0
bin	-0.4	0
bin	-0.36666666666667	0
bin	-0.33333333333333	0
bin	-0.3	0
bin	-0.26666666666667	0
bin	-0.23333333333333	0
bin	-0.2	0
bin	-0.16666666666667	0
bin	-0.13333333333333	0
bin	-0.1	0
bin	-0.066666666666667	0
bin	-0.033333333333333	0
bin	0	0
bin	0.033333333333333	0
bin	0.066666666666667	0
bin	0.1	0
bin	0.13333333333333	0
bin	0.16666666666667	0
bin	0.2	0
bin	0.23333333333333	0
bin	0.26666666666667	0
bin	0.3	0
bin	0.33333333333333	0
bin	0.36666666666667	0
bin	0.4	0
bin	0.43333333333333	0
bin	0.46666666666667	0
bin	0.5	0
statistic is1_3l_32n.H_13_U1.sink 	Last-to-Enough-Pkt-Arrival
field count 0
field mean 0
field stddev -nan
field sum 0
field sqrsum 0
field min 0
field max 0
scalar is1_3l_32n.H_13_U1.sink 	Sink-BW-MBps 	-0
scalar is1_3l_32n.H_13_U1.sink 	VL-0-total-flits 	0
statistic is1_3l_32n.H_13_U1.sink 	OOO-Window-Pkts
field count 0
field mean 0
field stddev -nan
field sum 0
field sqrsum 0
field min 0
field max 0
scalar is1_3l_32n.H_13_U1.sink 	OO-IO-Packets-Ratio 	-nan
scalar is1_3l_32n.H_13_U1.sink 	Num-SRCs 	0
scalar is1_3l_32n.H_13_U1.obuf 	"Output BW (Byte/s)" 	inf
scalar is1_3l_32n.H_13_U1.obuf 	"Output BW (MB/s)" 	inf
statistic is1_3l_32n.H_13_U1.obuf 	"Flits Sources"
field count 0
field mean 0
field stddev -nan
field sum 0
field sqrsum 0
field min 0
field max 0
scalar is1_3l_32n.H_14_U1.sink 	"Time last packet consumed:" 	0
statistic is1_3l_32n.H_14_U1.sink 	"Waiting time statistics"
field count 0
field mean 0
field stddev -nan
field sum 0
field sqrsum 0
field min 0
field max 0
statistic is1_3l_32n.H_14_U1.sink 	"Packet Fabric Time"
field count 0
field mean 0
field stddev -nan
field sum 0
field sqrsum 0
field min 0
field max 0
bin	-INF	0
bin	0	0
bin	0.033333333333333	0
bin	0.066666666666667	0
bin	0.1	0
bin	0.13333333333333	0
bin	0.16666666666667	0
bin	0.2	0
bin	0.23333333333333	0
bin	0.26666666666667	0
bin	0.3	0
bin	0.33333333333333	0
bin	0.36666666666667	0
bin	0.4	0
bin	0.43333333333333	0
bin	0.46666666666667	0
bin	0.5	0
bin	0.53333333333333	0
bin	0.56666666666667	0
bin	0.6	0
bin	0.63333333333333	0
bin	0.66666666666667	0
bin	0.7	0
bin	0.73333333333333	0
bin	0.76666666666667	0
bin	0.8	0
bin	0.83333333333333	0
bin	0.86666666666667	0
bin	0.9	0
bin	0.93333333333333	0
bin	0.96666666666667	0
bin	1	0
statistic is1_3l_32n.H_14_U1.sink 	Msg-Network-Latency
field count 0
field mean 0
field stddev -nan
field sum 0
field sqrsum 0
field min 0
field max 0
bin	-INF	0
bin	-0.5	0
bin	-0.46666666666667	0
bin	-0.43333333333333	0
bin	-0.4	0
bin	-0.36666666666667	0
bin	-0.33333333333333	0
bin	-0.3	0
bin	-0.26666666666667	0
bin	-0.23333333333333	0
bin	-0.2	0
bin	-0.16666666666667	0
bin	-0.13333333333333	0
bin	-0.1	0
bin	-0.066666666666667	0
bin	-0.033333333333333	0
bin	0	0
bin	0.033333333333333	0
bin	0.066666666666667	0
bin	0.1	0
bin	0.13333333333333	0
bin	0.16666666666667	0
bin	0.2	0
bin	0.23333333333333	0
bin	0.26666666666667	0
bin	0.3	0
bin	0.33333333333333	0
bin	0.36666666666667	0
bin	0.4	0
bin	0.43333333333333	0
bin	0.46666666666667	0
bin	0.5	0
statistic is1_3l_32n.H_14_U1.sink 	Small-Msg-Network-Latency
field count 0
field mean 0
field stddev -nan
field sum 0
field sqrsum 0
field min 0
field max 0
bin	-INF	0
bin	-0.5	0
bin	-0.46666666666667	0
bin	-0.43333333333333	0
bin	-0.4	0
bin	-0.36666666666667	0
bin	-0.33333333333333	0
bin	-0.3	0
bin	-0.26666666666667	0
bin	-0.23333333333333	0
bin	-0.2	0
bin	-0.16666666666667	0
bin	-0.13333333333333	0
bin	-0.1	0
bin	-0.066666666666667	0
bin	-0.033333333333333	0
bin	0	0
bin	0.033333333333333	0
bin	0.066666666666667	0
bin	0.1	0
bin	0.13333333333333	0
bin	0.16666666666667	0
bin	0.2	0
bin	0.23333333333333	0
bin	0.26666666666667	0
bin	0.3	0
bin	0.33333333333333	0
bin	0.36666666666667	0
bin	0.4	0
bin	0.43333333333333	0
bin	0.46666666666667	0
bin	0.5	0
statistic is1_3l_32n.H_14_U1.sink 	Msg-First2First-Network-Latency
field count 0
field mean 0
field stddev -nan
field sum 0
field sqrsum 0
field min 0
field max 0
bin	-INF	0
bin	-0.5	0
bin	-0.46666666666667	0
bin	-0.43333333333333	0
bin	-0.4	0
bin	-0.36666666666667	0
bin	-0.33333333333333	0
bin	-0.3	0
bin	-0.26666666666667	0
bin	-0.23333333333333	0
bin	-0.2	0
bin	-0.16666666666667	0
bin	-0.13333333333333	0
bin	-0.1	0
bin	-0.066666666666667	0
bin	-0.033333333333333	0
bin	0	0
bin	0.033333333333333	0
bin	0.066666666666667	0
bin	0.1	0
bin	0.13333333333333	0
bin	0.16666666666667	0
bin	0.2	0
bin	0.23333333333333	0
bin	0.26666666666667	0
bin	0.3	0
bin	0.33333333333333	0
bin	0.36666666666667	0
bin	0.4	0
bin	0.43333333333333	0
bin	0.46666666666667	0
bin	0.5	0
statistic is1_3l_32n.H_14_U1.sink 	Enough-Pkts-Network-Latency
field count 0
field mean 0
field stddev -nan
field sum 0
field sqrsum 0
field min 0
field max 0
bin	-INF	0
bin	-0.5	0
bin	-0.46666666666667	0
bin	-0.43333333333333	0
bin	-0.4	0
bin	-0.36666666666667	0
bin	-0.33333333333333	0
bin	-0.3	0
bin	-0.26666666666667	0
bin	-0.23333333333333	0
bin	-0.2	0
bin	-0.16666666666667	0
bin	-0.13333333333333	0
bin	-0.1	0
bin	-0.066666666666667	0
bin	-0.033333333333333	0
bin	0	0
bin	0.033333333333333	0
bin	0.066666666666667	0
bin	0.1	0
bin	0.13333333333333	0
bin	0.16666666666667	0
bin	0.2	0
bin	0.23333333333333	0
bin	0.26666666666667	0
bin	0.3	0
bin	0.33333333333333	0
bin	0.36666666666667	0
bin	0.4	0
bin	0.43333333333333	0
bin	0.46666666666667	0
bin	0.5	0
statistic is1_3l_32n.H_14_U1.sink 	Last-to-Enough-Pkt-Arrival
field count 0
field mean 0
field stddev -nan
field sum 0
field sqrsum 0
field min 0
field max 0
scalar is1_3l_32n.H_14_U1.sink 	Sink-BW-MBps 	-0
scalar is1_3l_32n.H_14_U1.sink 	VL-0-total-flits 	0
statistic is1_3l_32n.H_14_U1.sink 	OOO-Window-Pkts
field count 0
field mean 0
field stddev -nan
field sum 0
field sqrsum 0
field min 0
field max 0
scalar is1_3l_32n.H_14_U1.sink 	OO-IO-Packets-Ratio 	-nan
scalar is1_3l_32n.H_14_U1.sink 	Num-SRCs 	0
scalar is1_3l_32n.H_14_U1.obuf 	"Output BW (Byte/s)" 	inf
scalar is1_3l_32n.H_14_U1.obuf 	"Output BW (MB/s)" 	inf
statistic is1_3l_32n.H_14_U1.obuf 	"Flits Sources"
field count 0
field mean 0
field stddev -nan
field sum 0
field sqrsum 0
field min 0
field max 0
scalar is1_3l_32n.H_15_U1.sink 	"Time last packet consumed:" 	0
statistic is1_3l_32n.H_15_U1.sink 	"Waiting time statistics"
field count 0
field mean 0
field stddev -nan
field sum 0
field sqrsum 0
field min 0
field max 0
statistic is1_3l_32n.H_15_U1.sink 	"Packet Fabric Time"
field count 0
field mean 0
field stddev -nan
field sum 0
field sqrsum 0
field min 0
field max 0
bin	-INF	0
bin	0	0
bin	0.033333333333333	0
bin	0.066666666666667	0
bin	0.1	0
bin	0.13333333333333	0
bin	0.16666666666667	0
bin	0.2	0
bin	0.23333333333333	0
bin	0.26666666666667	0
bin	0.3	0
bin	0.33333333333333	0
bin	0.36666666666667	0
bin	0.4	0
bin	0.43333333333333	0
bin	0.46666666666667	0
bin	0.5	0
bin	0.53333333333333	0
bin	0.56666666666667	0
bin	0.6	0
bin	0.63333333333333	0
bin	0.66666666666667	0
bin	0.7	0
bin	0.73333333333333	0
bin	0.76666666666667	0
bin	0.8	0
bin	0.83333333333333	0
bin	0.86666666666667	0
bin	0.9	0
bin	0.93333333333333	0
bin	0.96666666666667	0
bin	1	0
statistic is1_3l_32n.H_15_U1.sink 	Msg-Network-Latency
field count 0
field mean 0
field stddev -nan
field sum 0
field sqrsum 0
field min 0
field max 0
bin	-INF	0
bin	-0.5	0
bin	-0.46666666666667	0
bin	-0.43333333333333	0
bin	-0.4	0
bin	-0.36666666666667	0
bin	-0.33333333333333	0
bin	-0.3	0
bin	-0.26666666666667	0
bin	-0.23333333333333	0
bin	-0.2	0
bin	-0.16666666666667	0
bin	-0.13333333333333	0
bin	-0.1	0
bin	-0.066666666666667	0
bin	-0.033333333333333	0
bin	0	0
bin	0.033333333333333	0
bin	0.066666666666667	0
bin	0.1	0
bin	0.13333333333333	0
bin	0.16666666666667	0
bin	0.2	0
bin	0.23333333333333	0
bin	0.26666666666667	0
bin	0.3	0
bin	0.33333333333333	0
bin	0.36666666666667	0
bin	0.4	0
bin	0.43333333333333	0
bin	0.46666666666667	0
bin	0.5	0
statistic is1_3l_32n.H_15_U1.sink 	Small-Msg-Network-Latency
field count 0
field mean 0
field stddev -nan
field sum 0
field sqrsum 0
field min 0
field max 0
bin	-INF	0
bin	-0.5	0
bin	-0.46666666666667	0
bin	-0.43333333333333	0
bin	-0.4	0
bin	-0.36666666666667	0
bin	-0.33333333333333	0
bin	-0.3	0
bin	-0.26666666666667	0
bin	-0.23333333333333	0
bin	-0.2	0
bin	-0.16666666666667	0
bin	-0.13333333333333	0
bin	-0.1	0
bin	-0.066666666666667	0
bin	-0.033333333333333	0
bin	0	0
bin	0.033333333333333	0
bin	0.066666666666667	0
bin	0.1	0
bin	0.13333333333333	0
bin	0.16666666666667	0
bin	0.2	0
bin	0.23333333333333	0
bin	0.26666666666667	0
bin	0.3	0
bin	0.33333333333333	0
bin	0.36666666666667	0
bin	0.4	0
bin	0.43333333333333	0
bin	0.46666666666667	0
bin	0.5	0
statistic is1_3l_32n.H_15_U1.sink 	Msg-First2First-Network-Latency
field count 0
field mean 0
field stddev -nan
field sum 0
field sqrsum 0
field min 0
field max 0
bin	-INF	0
bin	-0.5	0
bin	-0.46666666666667	0
bin	-0.43333333333333	0
bin	-0.4	0
bin	-0.36666666666667	0
bin	-0.33333333333333	0
bin	-0.3	0
bin	-0.26666666666667	0
bin	-0.23333333333333	0
bin	-0.2	0
bin	-0.16666666666667	0
bin	-0.13333333333333	0
bin	-0.1	0
bin	-0.066666666666667	0
bin	-0.033333333333333	0
bin	0	0
bin	0.033333333333333	0
bin	0.066666666666667	0
bin	0.1	0
bin	0.13333333333333	0
bin	0.16666666666667	0
bin	0.2	0
bin	0.23333333333333	0
bin	0.26666666666667	0
bin	0.3	0
bin	0.33333333333333	0
bin	0.36666666666667	0
bin	0.4	0
bin	0.43333333333333	0
bin	0.46666666666667	0
bin	0.5	0
statistic is1_3l_32n.H_15_U1.sink 	Enough-Pkts-Network-Latency
field count 0
field mean 0
field stddev -nan
field sum 0
field sqrsum 0
field min 0
field max 0
bin	-INF	0
bin	-0.5	0
bin	-0.46666666666667	0
bin	-0.43333333333333	0
bin	-0.4	0
bin	-0.36666666666667	0
bin	-0.33333333333333	0
bin	-0.3	0
bin	-0.26666666666667	0
bin	-0.23333333333333	0
bin	-0.2	0
bin	-0.16666666666667	0
bin	-0.13333333333333	0
bin	-0.1	0
bin	-0.066666666666667	0
bin	-0.033333333333333	0
bin	0	0
bin	0.033333333333333	0
bin	0.066666666666667	0
bin	0.1	0
bin	0.13333333333333	0
bin	0.16666666666667	0
bin	0.2	0
bin	0.23333333333333	0
bin	0.26666666666667	0
bin	0.3	0
bin	0.33333333333333	0
bin	0.36666666666667	0
bin	0.4	0
bin	0.43333333333333	0
bin	0.46666666666667	0
bin	0.5	0
statistic is1_3l_32n.H_15_U1.sink 	Last-to-Enough-Pkt-Arrival
field count 0
field mean 0
field stddev -nan
field sum 0
field sqrsum 0
field min 0
field max 0
scalar is1_3l_32n.H_15_U1.sink 	Sink-BW-MBps 	-0
scalar is1_3l_32n.H_15_U1.sink 	VL-0-total-flits 	0
statistic is1_3l_32n.H_15_U1.sink 	OOO-Window-Pkts
field count 0
field mean 0
field stddev -nan
field sum 0
field sqrsum 0
field min 0
field max 0
scalar is1_3l_32n.H_15_U1.sink 	OO-IO-Packets-Ratio 	-nan
scalar is1_3l_32n.H_15_U1.sink 	Num-SRCs 	0
scalar is1_3l_32n.H_15_U1.obuf 	"Output BW (Byte/s)" 	inf
scalar is1_3l_32n.H_15_U1.obuf 	"Output BW (MB/s)" 	inf
statistic is1_3l_32n.H_15_U1.obuf 	"Flits Sources"
field count 0
field mean 0
field stddev -nan
field sum 0
field sqrsum 0
field min 0
field max 0
scalar is1_3l_32n.H_16_U1.sink 	"Time last packet consumed:" 	0
statistic is1_3l_32n.H_16_U1.sink 	"Waiting time statistics"
field count 0
field mean 0
field stddev -nan
field sum 0
field sqrsum 0
field min 0
field max 0
statistic is1_3l_32n.H_16_U1.sink 	"Packet Fabric Time"
field count 0
field mean 0
field stddev -nan
field sum 0
field sqrsum 0
field min 0
field max 0
bin	-INF	0
bin	0	0
bin	0.033333333333333	0
bin	0.066666666666667	0
bin	0.1	0
bin	0.13333333333333	0
bin	0.16666666666667	0
bin	0.2	0
bin	0.23333333333333	0
bin	0.26666666666667	0
bin	0.3	0
bin	0.33333333333333	0
bin	0.36666666666667	0
bin	0.4	0
bin	0.43333333333333	0
bin	0.46666666666667	0
bin	0.5	0
bin	0.53333333333333	0
bin	0.56666666666667	0
bin	0.6	0
bin	0.63333333333333	0
bin	0.66666666666667	0
bin	0.7	0
bin	0.73333333333333	0
bin	0.76666666666667	0
bin	0.8	0
bin	0.83333333333333	0
bin	0.86666666666667	0
bin	0.9	0
bin	0.93333333333333	0
bin	0.96666666666667	0
bin	1	0
statistic is1_3l_32n.H_16_U1.sink 	Msg-Network-Latency
field count 0
field mean 0
field stddev -nan
field sum 0
field sqrsum 0
field min 0
field max 0
bin	-INF	0
bin	-0.5	0
bin	-0.46666666666667	0
bin	-0.43333333333333	0
bin	-0.4	0
bin	-0.36666666666667	0
bin	-0.33333333333333	0
bin	-0.3	0
bin	-0.26666666666667	0
bin	-0.23333333333333	0
bin	-0.2	0
bin	-0.16666666666667	0
bin	-0.13333333333333	0
bin	-0.1	0
bin	-0.066666666666667	0
bin	-0.033333333333333	0
bin	0	0
bin	0.033333333333333	0
bin	0.066666666666667	0
bin	0.1	0
bin	0.13333333333333	0
bin	0.16666666666667	0
bin	0.2	0
bin	0.23333333333333	0
bin	0.26666666666667	0
bin	0.3	0
bin	0.33333333333333	0
bin	0.36666666666667	0
bin	0.4	0
bin	0.43333333333333	0
bin	0.46666666666667	0
bin	0.5	0
statistic is1_3l_32n.H_16_U1.sink 	Small-Msg-Network-Latency
field count 0
field mean 0
field stddev -nan
field sum 0
field sqrsum 0
field min 0
field max 0
bin	-INF	0
bin	-0.5	0
bin	-0.46666666666667	0
bin	-0.43333333333333	0
bin	-0.4	0
bin	-0.36666666666667	0
bin	-0.33333333333333	0
bin	-0.3	0
bin	-0.26666666666667	0
bin	-0.23333333333333	0
bin	-0.2	0
bin	-0.16666666666667	0
bin	-0.13333333333333	0
bin	-0.1	0
bin	-0.066666666666667	0
bin	-0.033333333333333	0
bin	0	0
bin	0.033333333333333	0
bin	0.066666666666667	0
bin	0.1	0
bin	0.13333333333333	0
bin	0.16666666666667	0
bin	0.2	0
bin	0.23333333333333	0
bin	0.26666666666667	0
bin	0.3	0
bin	0.33333333333333	0
bin	0.36666666666667	0
bin	0.4	0
bin	0.43333333333333	0
bin	0.46666666666667	0
bin	0.5	0
statistic is1_3l_32n.H_16_U1.sink 	Msg-First2First-Network-Latency
field count 0
field mean 0
field stddev -nan
field sum 0
field sqrsum 0
field min 0
field max 0
bin	-INF	0
bin	-0.5	0
bin	-0.46666666666667	0
bin	-0.43333333333333	0
bin	-0.4	0
bin	-0.36666666666667	0
bin	-0.33333333333333	0
bin	-0.3	0
bin	-0.26666666666667	0
bin	-0.23333333333333	0
bin	-0.2	0
bin	-0.16666666666667	0
bin	-0.13333333333333	0
bin	-0.1	0
bin	-0.066666666666667	0
bin	-0.033333333333333	0
bin	0	0
bin	0.033333333333333	0
bin	0.066666666666667	0
bin	0.1	0
bin	0.13333333333333	0
bin	0.16666666666667	0
bin	0.2	0
bin	0.23333333333333	0
bin	0.26666666666667	0
bin	0.3	0
bin	0.33333333333333	0
bin	0.36666666666667	0
bin	0.4	0
bin	0.43333333333333	0
bin	0.46666666666667	0
bin	0.5	0
statistic is1_3l_32n.H_16_U1.sink 	Enough-Pkts-Network-Latency
field count 0
field mean 0
field stddev -nan
field sum 0
field sqrsum 0
field min 0
field max 0
bin	-INF	0
bin	-0.5	0
bin	-0.46666666666667	0
bin	-0.43333333333333	0
bin	-0.4	0
bin	-0.36666666666667	0
bin	-0.33333333333333	0
bin	-0.3	0
bin	-0.26666666666667	0
bin	-0.23333333333333	0
bin	-0.2	0
bin	-0.16666666666667	0
bin	-0.13333333333333	0
bin	-0.1	0
bin	-0.066666666666667	0
bin	-0.033333333333333	0
bin	0	0
bin	0.033333333333333	0
bin	0.066666666666667	0
bin	0.1	0
bin	0.13333333333333	0
bin	0.16666666666667	0
bin	0.2	0
bin	0.23333333333333	0
bin	0.26666666666667	0
bin	0.3	0
bin	0.33333333333333	0
bin	0.36666666666667	0
bin	0.4	0
bin	0.43333333333333	0
bin	0.46666666666667	0
bin	0.5	0
statistic is1_3l_32n.H_16_U1.sink 	Last-to-Enough-Pkt-Arrival
field count 0
field mean 0
field stddev -nan
field sum 0
field sqrsum 0
field min 0
field max 0
scalar is1_3l_32n.H_16_U1.sink 	Sink-BW-MBps 	-0
scalar is1_3l_32n.H_16_U1.sink 	VL-0-total-flits 	0
statistic is1_3l_32n.H_16_U1.sink 	OOO-Window-Pkts
field count 0
field mean 0
field stddev -nan
field sum 0
field sqrsum 0
field min 0
field max 0
scalar is1_3l_32n.H_16_U1.sink 	OO-IO-Packets-Ratio 	-nan
scalar is1_3l_32n.H_16_U1.sink 	Num-SRCs 	0
scalar is1_3l_32n.H_16_U1.obuf 	"Output BW (Byte/s)" 	inf
scalar is1_3l_32n.H_16_U1.obuf 	"Output BW (MB/s)" 	inf
statistic is1_3l_32n.H_16_U1.obuf 	"Flits Sources"
field count 0
field mean 0
field stddev -nan
field sum 0
field sqrsum 0
field min 0
field max 0
scalar is1_3l_32n.H_17_U1.sink 	"Time last packet consumed:" 	0
statistic is1_3l_32n.H_17_U1.sink 	"Waiting time statistics"
field count 0
field mean 0
field stddev -nan
field sum 0
field sqrsum 0
field min 0
field max 0
statistic is1_3l_32n.H_17_U1.sink 	"Packet Fabric Time"
field count 0
field mean 0
field stddev -nan
field sum 0
field sqrsum 0
field min 0
field max 0
bin	-INF	0
bin	0	0
bin	0.033333333333333	0
bin	0.066666666666667	0
bin	0.1	0
bin	0.13333333333333	0
bin	0.16666666666667	0
bin	0.2	0
bin	0.23333333333333	0
bin	0.26666666666667	0
bin	0.3	0
bin	0.33333333333333	0
bin	0.36666666666667	0
bin	0.4	0
bin	0.43333333333333	0
bin	0.46666666666667	0
bin	0.5	0
bin	0.53333333333333	0
bin	0.56666666666667	0
bin	0.6	0
bin	0.63333333333333	0
bin	0.66666666666667	0
bin	0.7	0
bin	0.73333333333333	0
bin	0.76666666666667	0
bin	0.8	0
bin	0.83333333333333	0
bin	0.86666666666667	0
bin	0.9	0
bin	0.93333333333333	0
bin	0.96666666666667	0
bin	1	0
statistic is1_3l_32n.H_17_U1.sink 	Msg-Network-Latency
field count 0
field mean 0
field stddev -nan
field sum 0
field sqrsum 0
field min 0
field max 0
bin	-INF	0
bin	-0.5	0
bin	-0.46666666666667	0
bin	-0.43333333333333	0
bin	-0.4	0
bin	-0.36666666666667	0
bin	-0.33333333333333	0
bin	-0.3	0
bin	-0.26666666666667	0
bin	-0.23333333333333	0
bin	-0.2	0
bin	-0.16666666666667	0
bin	-0.13333333333333	0
bin	-0.1	0
bin	-0.066666666666667	0
bin	-0.033333333333333	0
bin	0	0
bin	0.033333333333333	0
bin	0.066666666666667	0
bin	0.1	0
bin	0.13333333333333	0
bin	0.16666666666667	0
bin	0.2	0
bin	0.23333333333333	0
bin	0.26666666666667	0
bin	0.3	0
bin	0.33333333333333	0
bin	0.36666666666667	0
bin	0.4	0
bin	0.43333333333333	0
bin	0.46666666666667	0
bin	0.5	0
statistic is1_3l_32n.H_17_U1.sink 	Small-Msg-Network-Latency
field count 0
field mean 0
field stddev -nan
field sum 0
field sqrsum 0
field min 0
field max 0
bin	-INF	0
bin	-0.5	0
bin	-0.46666666666667	0
bin	-0.43333333333333	0
bin	-0.4	0
bin	-0.36666666666667	0
bin	-0.33333333333333	0
bin	-0.3	0
bin	-0.26666666666667	0
bin	-0.23333333333333	0
bin	-0.2	0
bin	-0.16666666666667	0
bin	-0.13333333333333	0
bin	-0.1	0
bin	-0.066666666666667	0
bin	-0.033333333333333	0
bin	0	0
bin	0.033333333333333	0
bin	0.066666666666667	0
bin	0.1	0
bin	0.13333333333333	0
bin	0.16666666666667	0
bin	0.2	0
bin	0.23333333333333	0
bin	0.26666666666667	0
bin	0.3	0
bin	0.33333333333333	0
bin	0.36666666666667	0
bin	0.4	0
bin	0.43333333333333	0
bin	0.46666666666667	0
bin	0.5	0
statistic is1_3l_32n.H_17_U1.sink 	Msg-First2First-Network-Latency
field count 0
field mean 0
field stddev -nan
field sum 0
field sqrsum 0
field min 0
field max 0
bin	-INF	0
bin	-0.5	0
bin	-0.46666666666667	0
bin	-0.43333333333333	0
bin	-0.4	0
bin	-0.36666666666667	0
bin	-0.33333333333333	0
bin	-0.3	0
bin	-0.26666666666667	0
bin	-0.23333333333333	0
bin	-0.2	0
bin	-0.16666666666667	0
bin	-0.13333333333333	0
bin	-0.1	0
bin	-0.066666666666667	0
bin	-0.033333333333333	0
bin	0	0
bin	0.033333333333333	0
bin	0.066666666666667	0
bin	0.1	0
bin	0.13333333333333	0
bin	0.16666666666667	0
bin	0.2	0
bin	0.23333333333333	0
bin	0.26666666666667	0
bin	0.3	0
bin	0.33333333333333	0
bin	0.36666666666667	0
bin	0.4	0
bin	0.43333333333333	0
bin	0.46666666666667	0
bin	0.5	0
statistic is1_3l_32n.H_17_U1.sink 	Enough-Pkts-Network-Latency
field count 0
field mean 0
field stddev -nan
field sum 0
field sqrsum 0
field min 0
field max 0
bin	-INF	0
bin	-0.5	0
bin	-0.46666666666667	0
bin	-0.43333333333333	0
bin	-0.4	0
bin	-0.36666666666667	0
bin	-0.33333333333333	0
bin	-0.3	0
bin	-0.26666666666667	0
bin	-0.23333333333333	0
bin	-0.2	0
bin	-0.16666666666667	0
bin	-0.13333333333333	0
bin	-0.1	0
bin	-0.066666666666667	0
bin	-0.033333333333333	0
bin	0	0
bin	0.033333333333333	0
bin	0.066666666666667	0
bin	0.1	0
bin	0.13333333333333	0
bin	0.16666666666667	0
bin	0.2	0
bin	0.23333333333333	0
bin	0.26666666666667	0
bin	0.3	0
bin	0.33333333333333	0
bin	0.36666666666667	0
bin	0.4	0
bin	0.43333333333333	0
bin	0.46666666666667	0
bin	0.5	0
statistic is1_3l_32n.H_17_U1.sink 	Last-to-Enough-Pkt-Arrival
field count 0
field mean 0
field stddev -nan
field sum 0
field sqrsum 0
field min 0
field max 0
scalar is1_3l_32n.H_17_U1.sink 	Sink-BW-MBps 	-0
scalar is1_3l_32n.H_17_U1.sink 	VL-0-total-flits 	0
statistic is1_3l_32n.H_17_U1.sink 	OOO-Window-Pkts
field count 0
field mean 0
field stddev -nan
field sum 0
field sqrsum 0
field min 0
field max 0
scalar is1_3l_32n.H_17_U1.sink 	OO-IO-Packets-Ratio 	-nan
scalar is1_3l_32n.H_17_U1.sink 	Num-SRCs 	0
scalar is1_3l_32n.H_17_U1.obuf 	"Output BW (Byte/s)" 	inf
scalar is1_3l_32n.H_17_U1.obuf 	"Output BW (MB/s)" 	inf
statistic is1_3l_32n.H_17_U1.obuf 	"Flits Sources"
field count 0
field mean 0
field stddev -nan
field sum 0
field sqrsum 0
field min 0
field max 0
scalar is1_3l_32n.H_18_U1.sink 	"Time last packet consumed:" 	0
statistic is1_3l_32n.H_18_U1.sink 	"Waiting time statistics"
field count 0
field mean 0
field stddev -nan
field sum 0
field sqrsum 0
field min 0
field max 0
statistic is1_3l_32n.H_18_U1.sink 	"Packet Fabric Time"
field count 0
field mean 0
field stddev -nan
field sum 0
field sqrsum 0
field min 0
field max 0
bin	-INF	0
bin	0	0
bin	0.033333333333333	0
bin	0.066666666666667	0
bin	0.1	0
bin	0.13333333333333	0
bin	0.16666666666667	0
bin	0.2	0
bin	0.23333333333333	0
bin	0.26666666666667	0
bin	0.3	0
bin	0.33333333333333	0
bin	0.36666666666667	0
bin	0.4	0
bin	0.43333333333333	0
bin	0.46666666666667	0
bin	0.5	0
bin	0.53333333333333	0
bin	0.56666666666667	0
bin	0.6	0
bin	0.63333333333333	0
bin	0.66666666666667	0
bin	0.7	0
bin	0.73333333333333	0
bin	0.76666666666667	0
bin	0.8	0
bin	0.83333333333333	0
bin	0.86666666666667	0
bin	0.9	0
bin	0.93333333333333	0
bin	0.96666666666667	0
bin	1	0
statistic is1_3l_32n.H_18_U1.sink 	Msg-Network-Latency
field count 0
field mean 0
field stddev -nan
field sum 0
field sqrsum 0
field min 0
field max 0
bin	-INF	0
bin	-0.5	0
bin	-0.46666666666667	0
bin	-0.43333333333333	0
bin	-0.4	0
bin	-0.36666666666667	0
bin	-0.33333333333333	0
bin	-0.3	0
bin	-0.26666666666667	0
bin	-0.23333333333333	0
bin	-0.2	0
bin	-0.16666666666667	0
bin	-0.13333333333333	0
bin	-0.1	0
bin	-0.066666666666667	0
bin	-0.033333333333333	0
bin	0	0
bin	0.033333333333333	0
bin	0.066666666666667	0
bin	0.1	0
bin	0.13333333333333	0
bin	0.16666666666667	0
bin	0.2	0
bin	0.23333333333333	0
bin	0.26666666666667	0
bin	0.3	0
bin	0.33333333333333	0
bin	0.36666666666667	0
bin	0.4	0
bin	0.43333333333333	0
bin	0.46666666666667	0
bin	0.5	0
statistic is1_3l_32n.H_18_U1.sink 	Small-Msg-Network-Latency
field count 0
field mean 0
field stddev -nan
field sum 0
field sqrsum 0
field min 0
field max 0
bin	-INF	0
bin	-0.5	0
bin	-0.46666666666667	0
bin	-0.43333333333333	0
bin	-0.4	0
bin	-0.36666666666667	0
bin	-0.33333333333333	0
bin	-0.3	0
bin	-0.26666666666667	0
bin	-0.23333333333333	0
bin	-0.2	0
bin	-0.16666666666667	0
bin	-0.13333333333333	0
bin	-0.1	0
bin	-0.066666666666667	0
bin	-0.033333333333333	0
bin	0	0
bin	0.033333333333333	0
bin	0.066666666666667	0
bin	0.1	0
bin	0.13333333333333	0
bin	0.16666666666667	0
bin	0.2	0
bin	0.23333333333333	0
bin	0.26666666666667	0
bin	0.3	0
bin	0.33333333333333	0
bin	0.36666666666667	0
bin	0.4	0
bin	0.43333333333333	0
bin	0.46666666666667	0
bin	0.5	0
statistic is1_3l_32n.H_18_U1.sink 	Msg-First2First-Network-Latency
field count 0
field mean 0
field stddev -nan
field sum 0
field sqrsum 0
field min 0
field max 0
bin	-INF	0
bin	-0.5	0
bin	-0.46666666666667	0
bin	-0.43333333333333	0
bin	-0.4	0
bin	-0.36666666666667	0
bin	-0.33333333333333	0
bin	-0.3	0
bin	-0.26666666666667	0
bin	-0.23333333333333	0
bin	-0.2	0
bin	-0.16666666666667	0
bin	-0.13333333333333	0
bin	-0.1	0
bin	-0.066666666666667	0
bin	-0.033333333333333	0
bin	0	0
bin	0.033333333333333	0
bin	0.066666666666667	0
bin	0.1	0
bin	0.13333333333333	0
bin	0.16666666666667	0
bin	0.2	0
bin	0.23333333333333	0
bin	0.26666666666667	0
bin	0.3	0
bin	0.33333333333333	0
bin	0.36666666666667	0
bin	0.4	0
bin	0.43333333333333	0
bin	0.46666666666667	0
bin	0.5	0
statistic is1_3l_32n.H_18_U1.sink 	Enough-Pkts-Network-Latency
field count 0
field mean 0
field stddev -nan
field sum 0
field sqrsum 0
field min 0
field max 0
bin	-INF	0
bin	-0.5	0
bin	-0.46666666666667	0
bin	-0.43333333333333	0
bin	-0.4	0
bin	-0.36666666666667	0
bin	-0.33333333333333	0
bin	-0.3	0
bin	-0.26666666666667	0
bin	-0.23333333333333	0
bin	-0.2	0
bin	-0.16666666666667	0
bin	-0.13333333333333	0
bin	-0.1	0
bin	-0.066666666666667	0
bin	-0.033333333333333	0
bin	0	0
bin	0.033333333333333	0
bin	0.066666666666667	0
bin	0.1	0
bin	0.13333333333333	0
bin	0.16666666666667	0
bin	0.2	0
bin	0.23333333333333	0
bin	0.26666666666667	0
bin	0.3	0
bin	0.33333333333333	0
bin	0.36666666666667	0
bin	0.4	0
bin	0.43333333333333	0
bin	0.46666666666667	0
bin	0.5	0
statistic is1_3l_32n.H_18_U1.sink 	Last-to-Enough-Pkt-Arrival
field count 0
field mean 0
field stddev -nan
field sum 0
field sqrsum 0
field min 0
field max 0
scalar is1_3l_32n.H_18_U1.sink 	Sink-BW-MBps 	-0
scalar is1_3l_32n.H_18_U1.sink 	VL-0-total-flits 	0
statistic is1_3l_32n.H_18_U1.sink 	OOO-Window-Pkts
field count 0
field mean 0
field stddev -nan
field sum 0
field sqrsum 0
field min 0
field max 0
scalar is1_3l_32n.H_18_U1.sink 	OO-IO-Packets-Ratio 	-nan
scalar is1_3l_32n.H_18_U1.sink 	Num-SRCs 	0
scalar is1_3l_32n.H_18_U1.obuf 	"Output BW (Byte/s)" 	inf
scalar is1_3l_32n.H_18_U1.obuf 	"Output BW (MB/s)" 	inf
statistic is1_3l_32n.H_18_U1.obuf 	"Flits Sources"
field count 0
field mean 0
field stddev -nan
field sum 0
field sqrsum 0
field min 0
field max 0
scalar is1_3l_32n.H_19_U1.sink 	"Time last packet consumed:" 	0
statistic is1_3l_32n.H_19_U1.sink 	"Waiting time statistics"
field count 0
field mean 0
field stddev -nan
field sum 0
field sqrsum 0
field min 0
field max 0
statistic is1_3l_32n.H_19_U1.sink 	"Packet Fabric Time"
field count 0
field mean 0
field stddev -nan
field sum 0
field sqrsum 0
field min 0
field max 0
bin	-INF	0
bin	0	0
bin	0.033333333333333	0
bin	0.066666666666667	0
bin	0.1	0
bin	0.13333333333333	0
bin	0.16666666666667	0
bin	0.2	0
bin	0.23333333333333	0
bin	0.26666666666667	0
bin	0.3	0
bin	0.33333333333333	0
bin	0.36666666666667	0
bin	0.4	0
bin	0.43333333333333	0
bin	0.46666666666667	0
bin	0.5	0
bin	0.53333333333333	0
bin	0.56666666666667	0
bin	0.6	0
bin	0.63333333333333	0
bin	0.66666666666667	0
bin	0.7	0
bin	0.73333333333333	0
bin	0.76666666666667	0
bin	0.8	0
bin	0.83333333333333	0
bin	0.86666666666667	0
bin	0.9	0
bin	0.93333333333333	0
bin	0.96666666666667	0
bin	1	0
statistic is1_3l_32n.H_19_U1.sink 	Msg-Network-Latency
field count 0
field mean 0
field stddev -nan
field sum 0
field sqrsum 0
field min 0
field max 0
bin	-INF	0
bin	-0.5	0
bin	-0.46666666666667	0
bin	-0.43333333333333	0
bin	-0.4	0
bin	-0.36666666666667	0
bin	-0.33333333333333	0
bin	-0.3	0
bin	-0.26666666666667	0
bin	-0.23333333333333	0
bin	-0.2	0
bin	-0.16666666666667	0
bin	-0.13333333333333	0
bin	-0.1	0
bin	-0.066666666666667	0
bin	-0.033333333333333	0
bin	0	0
bin	0.033333333333333	0
bin	0.066666666666667	0
bin	0.1	0
bin	0.13333333333333	0
bin	0.16666666666667	0
bin	0.2	0
bin	0.23333333333333	0
bin	0.26666666666667	0
bin	0.3	0
bin	0.33333333333333	0
bin	0.36666666666667	0
bin	0.4	0
bin	0.43333333333333	0
bin	0.46666666666667	0
bin	0.5	0
statistic is1_3l_32n.H_19_U1.sink 	Small-Msg-Network-Latency
field count 0
field mean 0
field stddev -nan
field sum 0
field sqrsum 0
field min 0
field max 0
bin	-INF	0
bin	-0.5	0
bin	-0.46666666666667	0
bin	-0.43333333333333	0
bin	-0.4	0
bin	-0.36666666666667	0
bin	-0.33333333333333	0
bin	-0.3	0
bin	-0.26666666666667	0
bin	-0.23333333333333	0
bin	-0.2	0
bin	-0.16666666666667	0
bin	-0.13333333333333	0
bin	-0.1	0
bin	-0.066666666666667	0
bin	-0.033333333333333	0
bin	0	0
bin	0.033333333333333	0
bin	0.066666666666667	0
bin	0.1	0
bin	0.13333333333333	0
bin	0.16666666666667	0
bin	0.2	0
bin	0.23333333333333	0
bin	0.26666666666667	0
bin	0.3	0
bin	0.33333333333333	0
bin	0.36666666666667	0
bin	0.4	0
bin	0.43333333333333	0
bin	0.46666666666667	0
bin	0.5	0
statistic is1_3l_32n.H_19_U1.sink 	Msg-First2First-Network-Latency
field count 0
field mean 0
field stddev -nan
field sum 0
field sqrsum 0
field min 0
field max 0
bin	-INF	0
bin	-0.5	0
bin	-0.46666666666667	0
bin	-0.43333333333333	0
bin	-0.4	0
bin	-0.36666666666667	0
bin	-0.33333333333333	0
bin	-0.3	0
bin	-0.26666666666667	0
bin	-0.23333333333333	0
bin	-0.2	0
bin	-0.16666666666667	0
bin	-0.13333333333333	0
bin	-0.1	0
bin	-0.066666666666667	0
bin	-0.033333333333333	0
bin	0	0
bin	0.033333333333333	0
bin	0.066666666666667	0
bin	0.1	0
bin	0.13333333333333	0
bin	0.16666666666667	0
bin	0.2	0
bin	0.23333333333333	0
bin	0.26666666666667	0
bin	0.3	0
bin	0.33333333333333	0
bin	0.36666666666667	0
bin	0.4	0
bin	0.43333333333333	0
bin	0.46666666666667	0
bin	0.5	0
statistic is1_3l_32n.H_19_U1.sink 	Enough-Pkts-Network-Latency
field count 0
field mean 0
field stddev -nan
field sum 0
field sqrsum 0
field min 0
field max 0
bin	-INF	0
bin	-0.5	0
bin	-0.46666666666667	0
bin	-0.43333333333333	0
bin	-0.4	0
bin	-0.36666666666667	0
bin	-0.33333333333333	0
bin	-0.3	0
bin	-0.26666666666667	0
bin	-0.23333333333333	0
bin	-0.2	0
bin	-0.16666666666667	0
bin	-0.13333333333333	0
bin	-0.1	0
bin	-0.066666666666667	0
bin	-0.033333333333333	0
bin	0	0
bin	0.033333333333333	0
bin	0.066666666666667	0
bin	0.1	0
bin	0.13333333333333	0
bin	0.16666666666667	0
bin	0.2	0
bin	0.23333333333333	0
bin	0.26666666666667	0
bin	0.3	0
bin	0.33333333333333	0
bin	0.36666666666667	0
bin	0.4	0
bin	0.43333333333333	0
bin	0.46666666666667	0
bin	0.5	0
statistic is1_3l_32n.H_19_U1.sink 	Last-to-Enough-Pkt-Arrival
field count 0
field mean 0
field stddev -nan
field sum 0
field sqrsum 0
field min 0
field max 0
scalar is1_3l_32n.H_19_U1.sink 	Sink-BW-MBps 	-0
scalar is1_3l_32n.H_19_U1.sink 	VL-0-total-flits 	0
statistic is1_3l_32n.H_19_U1.sink 	OOO-Window-Pkts
field count 0
field mean 0
field stddev -nan
field sum 0
field sqrsum 0
field min 0
field max 0
scalar is1_3l_32n.H_19_U1.sink 	OO-IO-Packets-Ratio 	-nan
scalar is1_3l_32n.H_19_U1.sink 	Num-SRCs 	0
scalar is1_3l_32n.H_19_U1.obuf 	"Output BW (Byte/s)" 	inf
scalar is1_3l_32n.H_19_U1.obuf 	"Output BW (MB/s)" 	inf
statistic is1_3l_32n.H_19_U1.obuf 	"Flits Sources"
field count 0
field mean 0
field stddev -nan
field sum 0
field sqrsum 0
field min 0
field max 0
scalar is1_3l_32n.H_2_U1.sink 	"Time last packet consumed:" 	0
statistic is1_3l_32n.H_2_U1.sink 	"Waiting time statistics"
field count 0
field mean 0
field stddev -nan
field sum 0
field sqrsum 0
field min 0
field max 0
statistic is1_3l_32n.H_2_U1.sink 	"Packet Fabric Time"
field count 0
field mean 0
field stddev -nan
field sum 0
field sqrsum 0
field min 0
field max 0
bin	-INF	0
bin	0	0
bin	0.033333333333333	0
bin	0.066666666666667	0
bin	0.1	0
bin	0.13333333333333	0
bin	0.16666666666667	0
bin	0.2	0
bin	0.23333333333333	0
bin	0.26666666666667	0
bin	0.3	0
bin	0.33333333333333	0
bin	0.36666666666667	0
bin	0.4	0
bin	0.43333333333333	0
bin	0.46666666666667	0
bin	0.5	0
bin	0.53333333333333	0
bin	0.56666666666667	0
bin	0.6	0
bin	0.63333333333333	0
bin	0.66666666666667	0
bin	0.7	0
bin	0.73333333333333	0
bin	0.76666666666667	0
bin	0.8	0
bin	0.83333333333333	0
bin	0.86666666666667	0
bin	0.9	0
bin	0.93333333333333	0
bin	0.96666666666667	0
bin	1	0
statistic is1_3l_32n.H_2_U1.sink 	Msg-Network-Latency
field count 0
field mean 0
field stddev -nan
field sum 0
field sqrsum 0
field min 0
field max 0
bin	-INF	0
bin	-0.5	0
bin	-0.46666666666667	0
bin	-0.43333333333333	0
bin	-0.4	0
bin	-0.36666666666667	0
bin	-0.33333333333333	0
bin	-0.3	0
bin	-0.26666666666667	0
bin	-0.23333333333333	0
bin	-0.2	0
bin	-0.16666666666667	0
bin	-0.13333333333333	0
bin	-0.1	0
bin	-0.066666666666667	0
bin	-0.033333333333333	0
bin	0	0
bin	0.033333333333333	0
bin	0.066666666666667	0
bin	0.1	0
bin	0.13333333333333	0
bin	0.16666666666667	0
bin	0.2	0
bin	0.23333333333333	0
bin	0.26666666666667	0
bin	0.3	0
bin	0.33333333333333	0
bin	0.36666666666667	0
bin	0.4	0
bin	0.43333333333333	0
bin	0.46666666666667	0
bin	0.5	0
statistic is1_3l_32n.H_2_U1.sink 	Small-Msg-Network-Latency
field count 0
field mean 0
field stddev -nan
field sum 0
field sqrsum 0
field min 0
field max 0
bin	-INF	0
bin	-0.5	0
bin	-0.46666666666667	0
bin	-0.43333333333333	0
bin	-0.4	0
bin	-0.36666666666667	0
bin	-0.33333333333333	0
bin	-0.3	0
bin	-0.26666666666667	0
bin	-0.23333333333333	0
bin	-0.2	0
bin	-0.16666666666667	0
bin	-0.13333333333333	0
bin	-0.1	0
bin	-0.066666666666667	0
bin	-0.033333333333333	0
bin	0	0
bin	0.033333333333333	0
bin	0.066666666666667	0
bin	0.1	0
bin	0.13333333333333	0
bin	0.16666666666667	0
bin	0.2	0
bin	0.23333333333333	0
bin	0.26666666666667	0
bin	0.3	0
bin	0.33333333333333	0
bin	0.36666666666667	0
bin	0.4	0
bin	0.43333333333333	0
bin	0.46666666666667	0
bin	0.5	0
statistic is1_3l_32n.H_2_U1.sink 	Msg-First2First-Network-Latency
field count 0
field mean 0
field stddev -nan
field sum 0
field sqrsum 0
field min 0
field max 0
bin	-INF	0
bin	-0.5	0
bin	-0.46666666666667	0
bin	-0.43333333333333	0
bin	-0.4	0
bin	-0.36666666666667	0
bin	-0.33333333333333	0
bin	-0.3	0
bin	-0.26666666666667	0
bin	-0.23333333333333	0
bin	-0.2	0
bin	-0.16666666666667	0
bin	-0.13333333333333	0
bin	-0.1	0
bin	-0.066666666666667	0
bin	-0.033333333333333	0
bin	0	0
bin	0.033333333333333	0
bin	0.066666666666667	0
bin	0.1	0
bin	0.13333333333333	0
bin	0.16666666666667	0
bin	0.2	0
bin	0.23333333333333	0
bin	0.26666666666667	0
bin	0.3	0
bin	0.33333333333333	0
bin	0.36666666666667	0
bin	0.4	0
bin	0.43333333333333	0
bin	0.46666666666667	0
bin	0.5	0
statistic is1_3l_32n.H_2_U1.sink 	Enough-Pkts-Network-Latency
field count 0
field mean 0
field stddev -nan
field sum 0
field sqrsum 0
field min 0
field max 0
bin	-INF	0
bin	-0.5	0
bin	-0.46666666666667	0
bin	-0.43333333333333	0
bin	-0.4	0
bin	-0.36666666666667	0
bin	-0.33333333333333	0
bin	-0.3	0
bin	-0.26666666666667	0
bin	-0.23333333333333	0
bin	-0.2	0
bin	-0.16666666666667	0
bin	-0.13333333333333	0
bin	-0.1	0
bin	-0.066666666666667	0
bin	-0.033333333333333	0
bin	0	0
bin	0.033333333333333	0
bin	0.066666666666667	0
bin	0.1	0
bin	0.13333333333333	0
bin	0.16666666666667	0
bin	0.2	0
bin	0.23333333333333	0
bin	0.26666666666667	0
bin	0.3	0
bin	0.33333333333333	0
bin	0.36666666666667	0
bin	0.4	0
bin	0.43333333333333	0
bin	0.46666666666667	0
bin	0.5	0
statistic is1_3l_32n.H_2_U1.sink 	Last-to-Enough-Pkt-Arrival
field count 0
field mean 0
field stddev -nan
field sum 0
field sqrsum 0
field min 0
field max 0
scalar is1_3l_32n.H_2_U1.sink 	Sink-BW-MBps 	-0
scalar is1_3l_32n.H_2_U1.sink 	VL-0-total-flits 	0
statistic is1_3l_32n.H_2_U1.sink 	OOO-Window-Pkts
field count 0
field mean 0
field stddev -nan
field sum 0
field sqrsum 0
field min 0
field max 0
scalar is1_3l_32n.H_2_U1.sink 	OO-IO-Packets-Ratio 	-nan
scalar is1_3l_32n.H_2_U1.sink 	Num-SRCs 	0
scalar is1_3l_32n.H_2_U1.obuf 	"Output BW (Byte/s)" 	inf
scalar is1_3l_32n.H_2_U1.obuf 	"Output BW (MB/s)" 	inf
statistic is1_3l_32n.H_2_U1.obuf 	"Flits Sources"
field count 0
field mean 0
field stddev -nan
field sum 0
field sqrsum 0
field min 0
field max 0
scalar is1_3l_32n.H_20_U1.sink 	"Time last packet consumed:" 	0
statistic is1_3l_32n.H_20_U1.sink 	"Waiting time statistics"
field count 0
field mean 0
field stddev -nan
field sum 0
field sqrsum 0
field min 0
field max 0
statistic is1_3l_32n.H_20_U1.sink 	"Packet Fabric Time"
field count 0
field mean 0
field stddev -nan
field sum 0
field sqrsum 0
field min 0
field max 0
bin	-INF	0
bin	0	0
bin	0.033333333333333	0
bin	0.066666666666667	0
bin	0.1	0
bin	0.13333333333333	0
bin	0.16666666666667	0
bin	0.2	0
bin	0.23333333333333	0
bin	0.26666666666667	0
bin	0.3	0
bin	0.33333333333333	0
bin	0.36666666666667	0
bin	0.4	0
bin	0.43333333333333	0
bin	0.46666666666667	0
bin	0.5	0
bin	0.53333333333333	0
bin	0.56666666666667	0
bin	0.6	0
bin	0.63333333333333	0
bin	0.66666666666667	0
bin	0.7	0
bin	0.73333333333333	0
bin	0.76666666666667	0
bin	0.8	0
bin	0.83333333333333	0
bin	0.86666666666667	0
bin	0.9	0
bin	0.93333333333333	0
bin	0.96666666666667	0
bin	1	0
statistic is1_3l_32n.H_20_U1.sink 	Msg-Network-Latency
field count 0
field mean 0
field stddev -nan
field sum 0
field sqrsum 0
field min 0
field max 0
bin	-INF	0
bin	-0.5	0
bin	-0.46666666666667	0
bin	-0.43333333333333	0
bin	-0.4	0
bin	-0.36666666666667	0
bin	-0.33333333333333	0
bin	-0.3	0
bin	-0.26666666666667	0
bin	-0.23333333333333	0
bin	-0.2	0
bin	-0.16666666666667	0
bin	-0.13333333333333	0
bin	-0.1	0
bin	-0.066666666666667	0
bin	-0.033333333333333	0
bin	0	0
bin	0.033333333333333	0
bin	0.066666666666667	0
bin	0.1	0
bin	0.13333333333333	0
bin	0.16666666666667	0
bin	0.2	0
bin	0.23333333333333	0
bin	0.26666666666667	0
bin	0.3	0
bin	0.33333333333333	0
bin	0.36666666666667	0
bin	0.4	0
bin	0.43333333333333	0
bin	0.46666666666667	0
bin	0.5	0
statistic is1_3l_32n.H_20_U1.sink 	Small-Msg-Network-Latency
field count 0
field mean 0
field stddev -nan
field sum 0
field sqrsum 0
field min 0
field max 0
bin	-INF	0
bin	-0.5	0
bin	-0.46666666666667	0
bin	-0.43333333333333	0
bin	-0.4	0
bin	-0.36666666666667	0
bin	-0.33333333333333	0
bin	-0.3	0
bin	-0.26666666666667	0
bin	-0.23333333333333	0
bin	-0.2	0
bin	-0.16666666666667	0
bin	-0.13333333333333	0
bin	-0.1	0
bin	-0.066666666666667	0
bin	-0.033333333333333	0
bin	0	0
bin	0.033333333333333	0
bin	0.066666666666667	0
bin	0.1	0
bin	0.13333333333333	0
bin	0.16666666666667	0
bin	0.2	0
bin	0.23333333333333	0
bin	0.26666666666667	0
bin	0.3	0
bin	0.33333333333333	0
bin	0.36666666666667	0
bin	0.4	0
bin	0.43333333333333	0
bin	0.46666666666667	0
bin	0.5	0
statistic is1_3l_32n.H_20_U1.sink 	Msg-First2First-Network-Latency
field count 0
field mean 0
field stddev -nan
field sum 0
field sqrsum 0
field min 0
field max 0
bin	-INF	0
bin	-0.5	0
bin	-0.46666666666667	0
bin	-0.43333333333333	0
bin	-0.4	0
bin	-0.36666666666667	0
bin	-0.33333333333333	0
bin	-0.3	0
bin	-0.26666666666667	0
bin	-0.23333333333333	0
bin	-0.2	0
bin	-0.16666666666667	0
bin	-0.13333333333333	0
bin	-0.1	0
bin	-0.066666666666667	0
bin	-0.033333333333333	0
bin	0	0
bin	0.033333333333333	0
bin	0.066666666666667	0
bin	0.1	0
bin	0.13333333333333	0
bin	0.16666666666667	0
bin	0.2	0
bin	0.23333333333333	0
bin	0.26666666666667	0
bin	0.3	0
bin	0.33333333333333	0
bin	0.36666666666667	0
bin	0.4	0
bin	0.43333333333333	0
bin	0.46666666666667	0
bin	0.5	0
statistic is1_3l_32n.H_20_U1.sink 	Enough-Pkts-Network-Latency
field count 0
field mean 0
field stddev -nan
field sum 0
field sqrsum 0
field min 0
field max 0
bin	-INF	0
bin	-0.5	0
bin	-0.46666666666667	0
bin	-0.43333333333333	0
bin	-0.4	0
bin	-0.36666666666667	0
bin	-0.33333333333333	0
bin	-0.3	0
bin	-0.26666666666667	0
bin	-0.23333333333333	0
bin	-0.2	0
bin	-0.16666666666667	0
bin	-0.13333333333333	0
bin	-0.1	0
bin	-0.066666666666667	0
bin	-0.033333333333333	0
bin	0	0
bin	0.033333333333333	0
bin	0.066666666666667	0
bin	0.1	0
bin	0.13333333333333	0
bin	0.16666666666667	0
bin	0.2	0
bin	0.23333333333333	0
bin	0.26666666666667	0
bin	0.3	0
bin	0.33333333333333	0
bin	0.36666666666667	0
bin	0.4	0
bin	0.43333333333333	0
bin	0.46666666666667	0
bin	0.5	0
statistic is1_3l_32n.H_20_U1.sink 	Last-to-Enough-Pkt-Arrival
field count 0
field mean 0
field stddev -nan
field sum 0
field sqrsum 0
field min 0
field max 0
scalar is1_3l_32n.H_20_U1.sink 	Sink-BW-MBps 	-0
scalar is1_3l_32n.H_20_U1.sink 	VL-0-total-flits 	0
statistic is1_3l_32n.H_20_U1.sink 	OOO-Window-Pkts
field count 0
field mean 0
field stddev -nan
field sum 0
field sqrsum 0
field min 0
field max 0
scalar is1_3l_32n.H_20_U1.sink 	OO-IO-Packets-Ratio 	-nan
scalar is1_3l_32n.H_20_U1.sink 	Num-SRCs 	0
scalar is1_3l_32n.H_20_U1.obuf 	"Output BW (Byte/s)" 	inf
scalar is1_3l_32n.H_20_U1.obuf 	"Output BW (MB/s)" 	inf
statistic is1_3l_32n.H_20_U1.obuf 	"Flits Sources"
field count 0
field mean 0
field stddev -nan
field sum 0
field sqrsum 0
field min 0
field max 0
scalar is1_3l_32n.H_21_U1.sink 	"Time last packet consumed:" 	0
statistic is1_3l_32n.H_21_U1.sink 	"Waiting time statistics"
field count 0
field mean 0
field stddev -nan
field sum 0
field sqrsum 0
field min 0
field max 0
statistic is1_3l_32n.H_21_U1.sink 	"Packet Fabric Time"
field count 0
field mean 0
field stddev -nan
field sum 0
field sqrsum 0
field min 0
field max 0
bin	-INF	0
bin	0	0
bin	0.033333333333333	0
bin	0.066666666666667	0
bin	0.1	0
bin	0.13333333333333	0
bin	0.16666666666667	0
bin	0.2	0
bin	0.23333333333333	0
bin	0.26666666666667	0
bin	0.3	0
bin	0.33333333333333	0
bin	0.36666666666667	0
bin	0.4	0
bin	0.43333333333333	0
bin	0.46666666666667	0
bin	0.5	0
bin	0.53333333333333	0
bin	0.56666666666667	0
bin	0.6	0
bin	0.63333333333333	0
bin	0.66666666666667	0
bin	0.7	0
bin	0.73333333333333	0
bin	0.76666666666667	0
bin	0.8	0
bin	0.83333333333333	0
bin	0.86666666666667	0
bin	0.9	0
bin	0.93333333333333	0
bin	0.96666666666667	0
bin	1	0
statistic is1_3l_32n.H_21_U1.sink 	Msg-Network-Latency
field count 0
field mean 0
field stddev -nan
field sum 0
field sqrsum 0
field min 0
field max 0
bin	-INF	0
bin	-0.5	0
bin	-0.46666666666667	0
bin	-0.43333333333333	0
bin	-0.4	0
bin	-0.36666666666667	0
bin	-0.33333333333333	0
bin	-0.3	0
bin	-0.26666666666667	0
bin	-0.23333333333333	0
bin	-0.2	0
bin	-0.16666666666667	0
bin	-0.13333333333333	0
bin	-0.1	0
bin	-0.066666666666667	0
bin	-0.033333333333333	0
bin	0	0
bin	0.033333333333333	0
bin	0.066666666666667	0
bin	0.1	0
bin	0.13333333333333	0
bin	0.16666666666667	0
bin	0.2	0
bin	0.23333333333333	0
bin	0.26666666666667	0
bin	0.3	0
bin	0.33333333333333	0
bin	0.36666666666667	0
bin	0.4	0
bin	0.43333333333333	0
bin	0.46666666666667	0
bin	0.5	0
statistic is1_3l_32n.H_21_U1.sink 	Small-Msg-Network-Latency
field count 0
field mean 0
field stddev -nan
field sum 0
field sqrsum 0
field min 0
field max 0
bin	-INF	0
bin	-0.5	0
bin	-0.46666666666667	0
bin	-0.43333333333333	0
bin	-0.4	0
bin	-0.36666666666667	0
bin	-0.33333333333333	0
bin	-0.3	0
bin	-0.26666666666667	0
bin	-0.23333333333333	0
bin	-0.2	0
bin	-0.16666666666667	0
bin	-0.13333333333333	0
bin	-0.1	0
bin	-0.066666666666667	0
bin	-0.033333333333333	0
bin	0	0
bin	0.033333333333333	0
bin	0.066666666666667	0
bin	0.1	0
bin	0.13333333333333	0
bin	0.16666666666667	0
bin	0.2	0
bin	0.23333333333333	0
bin	0.26666666666667	0
bin	0.3	0
bin	0.33333333333333	0
bin	0.36666666666667	0
bin	0.4	0
bin	0.43333333333333	0
bin	0.46666666666667	0
bin	0.5	0
statistic is1_3l_32n.H_21_U1.sink 	Msg-First2First-Network-Latency
field count 0
field mean 0
field stddev -nan
field sum 0
field sqrsum 0
field min 0
field max 0
bin	-INF	0
bin	-0.5	0
bin	-0.46666666666667	0
bin	-0.43333333333333	0
bin	-0.4	0
bin	-0.36666666666667	0
bin	-0.33333333333333	0
bin	-0.3	0
bin	-0.26666666666667	0
bin	-0.23333333333333	0
bin	-0.2	0
bin	-0.16666666666667	0
bin	-0.13333333333333	0
bin	-0.1	0
bin	-0.066666666666667	0
bin	-0.033333333333333	0
bin	0	0
bin	0.033333333333333	0
bin	0.066666666666667	0
bin	0.1	0
bin	0.13333333333333	0
bin	0.16666666666667	0
bin	0.2	0
bin	0.23333333333333	0
bin	0.26666666666667	0
bin	0.3	0
bin	0.33333333333333	0
bin	0.36666666666667	0
bin	0.4	0
bin	0.43333333333333	0
bin	0.46666666666667	0
bin	0.5	0
statistic is1_3l_32n.H_21_U1.sink 	Enough-Pkts-Network-Latency
field count 0
field mean 0
field stddev -nan
field sum 0
field sqrsum 0
field min 0
field max 0
bin	-INF	0
bin	-0.5	0
bin	-0.46666666666667	0
bin	-0.43333333333333	0
bin	-0.4	0
bin	-0.36666666666667	0
bin	-0.33333333333333	0
bin	-0.3	0
bin	-0.26666666666667	0
bin	-0.23333333333333	0
bin	-0.2	0
bin	-0.16666666666667	0
bin	-0.13333333333333	0
bin	-0.1	0
bin	-0.066666666666667	0
bin	-0.033333333333333	0
bin	0	0
bin	0.033333333333333	0
bin	0.066666666666667	0
bin	0.1	0
bin	0.13333333333333	0
bin	0.16666666666667	0
bin	0.2	0
bin	0.23333333333333	0
bin	0.26666666666667	0
bin	0.3	0
bin	0.33333333333333	0
bin	0.36666666666667	0
bin	0.4	0
bin	0.43333333333333	0
bin	0.46666666666667	0
bin	0.5	0
statistic is1_3l_32n.H_21_U1.sink 	Last-to-Enough-Pkt-Arrival
field count 0
field mean 0
field stddev -nan
field sum 0
field sqrsum 0
field min 0
field max 0
scalar is1_3l_32n.H_21_U1.sink 	Sink-BW-MBps 	-0
scalar is1_3l_32n.H_21_U1.sink 	VL-0-total-flits 	0
statistic is1_3l_32n.H_21_U1.sink 	OOO-Window-Pkts
field count 0
field mean 0
field stddev -nan
field sum 0
field sqrsum 0
field min 0
field max 0
scalar is1_3l_32n.H_21_U1.sink 	OO-IO-Packets-Ratio 	-nan
scalar is1_3l_32n.H_21_U1.sink 	Num-SRCs 	0
scalar is1_3l_32n.H_21_U1.obuf 	"Output BW (Byte/s)" 	inf
scalar is1_3l_32n.H_21_U1.obuf 	"Output BW (MB/s)" 	inf
statistic is1_3l_32n.H_21_U1.obuf 	"Flits Sources"
field count 0
field mean 0
field stddev -nan
field sum 0
field sqrsum 0
field min 0
field max 0
scalar is1_3l_32n.H_22_U1.sink 	"Time last packet consumed:" 	0
statistic is1_3l_32n.H_22_U1.sink 	"Waiting time statistics"
field count 0
field mean 0
field stddev -nan
field sum 0
field sqrsum 0
field min 0
field max 0
statistic is1_3l_32n.H_22_U1.sink 	"Packet Fabric Time"
field count 0
field mean 0
field stddev -nan
field sum 0
field sqrsum 0
field min 0
field max 0
bin	-INF	0
bin	0	0
bin	0.033333333333333	0
bin	0.066666666666667	0
bin	0.1	0
bin	0.13333333333333	0
bin	0.16666666666667	0
bin	0.2	0
bin	0.23333333333333	0
bin	0.26666666666667	0
bin	0.3	0
bin	0.33333333333333	0
bin	0.36666666666667	0
bin	0.4	0
bin	0.43333333333333	0
bin	0.46666666666667	0
bin	0.5	0
bin	0.53333333333333	0
bin	0.56666666666667	0
bin	0.6	0
bin	0.63333333333333	0
bin	0.66666666666667	0
bin	0.7	0
bin	0.73333333333333	0
bin	0.76666666666667	0
bin	0.8	0
bin	0.83333333333333	0
bin	0.86666666666667	0
bin	0.9	0
bin	0.93333333333333	0
bin	0.96666666666667	0
bin	1	0
statistic is1_3l_32n.H_22_U1.sink 	Msg-Network-Latency
field count 0
field mean 0
field stddev -nan
field sum 0
field sqrsum 0
field min 0
field max 0
bin	-INF	0
bin	-0.5	0
bin	-0.46666666666667	0
bin	-0.43333333333333	0
bin	-0.4	0
bin	-0.36666666666667	0
bin	-0.33333333333333	0
bin	-0.3	0
bin	-0.26666666666667	0
bin	-0.23333333333333	0
bin	-0.2	0
bin	-0.16666666666667	0
bin	-0.13333333333333	0
bin	-0.1	0
bin	-0.066666666666667	0
bin	-0.033333333333333	0
bin	0	0
bin	0.033333333333333	0
bin	0.066666666666667	0
bin	0.1	0
bin	0.13333333333333	0
bin	0.16666666666667	0
bin	0.2	0
bin	0.23333333333333	0
bin	0.26666666666667	0
bin	0.3	0
bin	0.33333333333333	0
bin	0.36666666666667	0
bin	0.4	0
bin	0.43333333333333	0
bin	0.46666666666667	0
bin	0.5	0
statistic is1_3l_32n.H_22_U1.sink 	Small-Msg-Network-Latency
field count 0
field mean 0
field stddev -nan
field sum 0
field sqrsum 0
field min 0
field max 0
bin	-INF	0
bin	-0.5	0
bin	-0.46666666666667	0
bin	-0.43333333333333	0
bin	-0.4	0
bin	-0.36666666666667	0
bin	-0.33333333333333	0
bin	-0.3	0
bin	-0.26666666666667	0
bin	-0.23333333333333	0
bin	-0.2	0
bin	-0.16666666666667	0
bin	-0.13333333333333	0
bin	-0.1	0
bin	-0.066666666666667	0
bin	-0.033333333333333	0
bin	0	0
bin	0.033333333333333	0
bin	0.066666666666667	0
bin	0.1	0
bin	0.13333333333333	0
bin	0.16666666666667	0
bin	0.2	0
bin	0.23333333333333	0
bin	0.26666666666667	0
bin	0.3	0
bin	0.33333333333333	0
bin	0.36666666666667	0
bin	0.4	0
bin	0.43333333333333	0
bin	0.46666666666667	0
bin	0.5	0
statistic is1_3l_32n.H_22_U1.sink 	Msg-First2First-Network-Latency
field count 0
field mean 0
field stddev -nan
field sum 0
field sqrsum 0
field min 0
field max 0
bin	-INF	0
bin	-0.5	0
bin	-0.46666666666667	0
bin	-0.43333333333333	0
bin	-0.4	0
bin	-0.36666666666667	0
bin	-0.33333333333333	0
bin	-0.3	0
bin	-0.26666666666667	0
bin	-0.23333333333333	0
bin	-0.2	0
bin	-0.16666666666667	0
bin	-0.13333333333333	0
bin	-0.1	0
bin	-0.066666666666667	0
bin	-0.033333333333333	0
bin	0	0
bin	0.033333333333333	0
bin	0.066666666666667	0
bin	0.1	0
bin	0.13333333333333	0
bin	0.16666666666667	0
bin	0.2	0
bin	0.23333333333333	0
bin	0.26666666666667	0
bin	0.3	0
bin	0.33333333333333	0
bin	0.36666666666667	0
bin	0.4	0
bin	0.43333333333333	0
bin	0.46666666666667	0
bin	0.5	0
statistic is1_3l_32n.H_22_U1.sink 	Enough-Pkts-Network-Latency
field count 0
field mean 0
field stddev -nan
field sum 0
field sqrsum 0
field min 0
field max 0
bin	-INF	0
bin	-0.5	0
bin	-0.46666666666667	0
bin	-0.43333333333333	0
bin	-0.4	0
bin	-0.36666666666667	0
bin	-0.33333333333333	0
bin	-0.3	0
bin	-0.26666666666667	0
bin	-0.23333333333333	0
bin	-0.2	0
bin	-0.16666666666667	0
bin	-0.13333333333333	0
bin	-0.1	0
bin	-0.066666666666667	0
bin	-0.033333333333333	0
bin	0	0
bin	0.033333333333333	0
bin	0.066666666666667	0
bin	0.1	0
bin	0.13333333333333	0
bin	0.16666666666667	0
bin	0.2	0
bin	0.23333333333333	0
bin	0.26666666666667	0
bin	0.3	0
bin	0.33333333333333	0
bin	0.36666666666667	0
bin	0.4	0
bin	0.43333333333333	0
bin	0.46666666666667	0
bin	0.5	0
statistic is1_3l_32n.H_22_U1.sink 	Last-to-Enough-Pkt-Arrival
field count 0
field mean 0
field stddev -nan
field sum 0
field sqrsum 0
field min 0
field max 0
scalar is1_3l_32n.H_22_U1.sink 	Sink-BW-MBps 	-0
scalar is1_3l_32n.H_22_U1.sink 	VL-0-total-flits 	0
statistic is1_3l_32n.H_22_U1.sink 	OOO-Window-Pkts
field count 0
field mean 0
field stddev -nan
field sum 0
field sqrsum 0
field min 0
field max 0
scalar is1_3l_32n.H_22_U1.sink 	OO-IO-Packets-Ratio 	-nan
scalar is1_3l_32n.H_22_U1.sink 	Num-SRCs 	0
scalar is1_3l_32n.H_22_U1.obuf 	"Output BW (Byte/s)" 	inf
scalar is1_3l_32n.H_22_U1.obuf 	"Output BW (MB/s)" 	inf
statistic is1_3l_32n.H_22_U1.obuf 	"Flits Sources"
field count 0
field mean 0
field stddev -nan
field sum 0
field sqrsum 0
field min 0
field max 0
scalar is1_3l_32n.H_23_U1.sink 	"Time last packet consumed:" 	0
statistic is1_3l_32n.H_23_U1.sink 	"Waiting time statistics"
field count 0
field mean 0
field stddev -nan
field sum 0
field sqrsum 0
field min 0
field max 0
statistic is1_3l_32n.H_23_U1.sink 	"Packet Fabric Time"
field count 0
field mean 0
field stddev -nan
field sum 0
field sqrsum 0
field min 0
field max 0
bin	-INF	0
bin	0	0
bin	0.033333333333333	0
bin	0.066666666666667	0
bin	0.1	0
bin	0.13333333333333	0
bin	0.16666666666667	0
bin	0.2	0
bin	0.23333333333333	0
bin	0.26666666666667	0
bin	0.3	0
bin	0.33333333333333	0
bin	0.36666666666667	0
bin	0.4	0
bin	0.43333333333333	0
bin	0.46666666666667	0
bin	0.5	0
bin	0.53333333333333	0
bin	0.56666666666667	0
bin	0.6	0
bin	0.63333333333333	0
bin	0.66666666666667	0
bin	0.7	0
bin	0.73333333333333	0
bin	0.76666666666667	0
bin	0.8	0
bin	0.83333333333333	0
bin	0.86666666666667	0
bin	0.9	0
bin	0.93333333333333	0
bin	0.96666666666667	0
bin	1	0
statistic is1_3l_32n.H_23_U1.sink 	Msg-Network-Latency
field count 0
field mean 0
field stddev -nan
field sum 0
field sqrsum 0
field min 0
field max 0
bin	-INF	0
bin	-0.5	0
bin	-0.46666666666667	0
bin	-0.43333333333333	0
bin	-0.4	0
bin	-0.36666666666667	0
bin	-0.33333333333333	0
bin	-0.3	0
bin	-0.26666666666667	0
bin	-0.23333333333333	0
bin	-0.2	0
bin	-0.16666666666667	0
bin	-0.13333333333333	0
bin	-0.1	0
bin	-0.066666666666667	0
bin	-0.033333333333333	0
bin	0	0
bin	0.033333333333333	0
bin	0.066666666666667	0
bin	0.1	0
bin	0.13333333333333	0
bin	0.16666666666667	0
bin	0.2	0
bin	0.23333333333333	0
bin	0.26666666666667	0
bin	0.3	0
bin	0.33333333333333	0
bin	0.36666666666667	0
bin	0.4	0
bin	0.43333333333333	0
bin	0.46666666666667	0
bin	0.5	0
statistic is1_3l_32n.H_23_U1.sink 	Small-Msg-Network-Latency
field count 0
field mean 0
field stddev -nan
field sum 0
field sqrsum 0
field min 0
field max 0
bin	-INF	0
bin	-0.5	0
bin	-0.46666666666667	0
bin	-0.43333333333333	0
bin	-0.4	0
bin	-0.36666666666667	0
bin	-0.33333333333333	0
bin	-0.3	0
bin	-0.26666666666667	0
bin	-0.23333333333333	0
bin	-0.2	0
bin	-0.16666666666667	0
bin	-0.13333333333333	0
bin	-0.1	0
bin	-0.066666666666667	0
bin	-0.033333333333333	0
bin	0	0
bin	0.033333333333333	0
bin	0.066666666666667	0
bin	0.1	0
bin	0.13333333333333	0
bin	0.16666666666667	0
bin	0.2	0
bin	0.23333333333333	0
bin	0.26666666666667	0
bin	0.3	0
bin	0.33333333333333	0
bin	0.36666666666667	0
bin	0.4	0
bin	0.43333333333333	0
bin	0.46666666666667	0
bin	0.5	0
statistic is1_3l_32n.H_23_U1.sink 	Msg-First2First-Network-Latency
field count 0
field mean 0
field stddev -nan
field sum 0
field sqrsum 0
field min 0
field max 0
bin	-INF	0
bin	-0.5	0
bin	-0.46666666666667	0
bin	-0.43333333333333	0
bin	-0.4	0
bin	-0.36666666666667	0
bin	-0.33333333333333	0
bin	-0.3	0
bin	-0.26666666666667	0
bin	-0.23333333333333	0
bin	-0.2	0
bin	-0.16666666666667	0
bin	-0.13333333333333	0
bin	-0.1	0
bin	-0.066666666666667	0
bin	-0.033333333333333	0
bin	0	0
bin	0.033333333333333	0
bin	0.066666666666667	0
bin	0.1	0
bin	0.13333333333333	0
bin	0.16666666666667	0
bin	0.2	0
bin	0.23333333333333	0
bin	0.26666666666667	0
bin	0.3	0
bin	0.33333333333333	0
bin	0.36666666666667	0
bin	0.4	0
bin	0.43333333333333	0
bin	0.46666666666667	0
bin	0.5	0
statistic is1_3l_32n.H_23_U1.sink 	Enough-Pkts-Network-Latency
field count 0
field mean 0
field stddev -nan
field sum 0
field sqrsum 0
field min 0
field max 0
bin	-INF	0
bin	-0.5	0
bin	-0.46666666666667	0
bin	-0.43333333333333	0
bin	-0.4	0
bin	-0.36666666666667	0
bin	-0.33333333333333	0
bin	-0.3	0
bin	-0.26666666666667	0
bin	-0.23333333333333	0
bin	-0.2	0
bin	-0.16666666666667	0
bin	-0.13333333333333	0
bin	-0.1	0
bin	-0.066666666666667	0
bin	-0.033333333333333	0
bin	0	0
bin	0.033333333333333	0
bin	0.066666666666667	0
bin	0.1	0
bin	0.13333333333333	0
bin	0.16666666666667	0
bin	0.2	0
bin	0.23333333333333	0
bin	0.26666666666667	0
bin	0.3	0
bin	0.33333333333333	0
bin	0.36666666666667	0
bin	0.4	0
bin	0.43333333333333	0
bin	0.46666666666667	0
bin	0.5	0
statistic is1_3l_32n.H_23_U1.sink 	Last-to-Enough-Pkt-Arrival
field count 0
field mean 0
field stddev -nan
field sum 0
field sqrsum 0
field min 0
field max 0
scalar is1_3l_32n.H_23_U1.sink 	Sink-BW-MBps 	-0
scalar is1_3l_32n.H_23_U1.sink 	VL-0-total-flits 	0
statistic is1_3l_32n.H_23_U1.sink 	OOO-Window-Pkts
field count 0
field mean 0
field stddev -nan
field sum 0
field sqrsum 0
field min 0
field max 0
scalar is1_3l_32n.H_23_U1.sink 	OO-IO-Packets-Ratio 	-nan
scalar is1_3l_32n.H_23_U1.sink 	Num-SRCs 	0
scalar is1_3l_32n.H_23_U1.obuf 	"Output BW (Byte/s)" 	inf
scalar is1_3l_32n.H_23_U1.obuf 	"Output BW (MB/s)" 	inf
statistic is1_3l_32n.H_23_U1.obuf 	"Flits Sources"
field count 0
field mean 0
field stddev -nan
field sum 0
field sqrsum 0
field min 0
field max 0
scalar is1_3l_32n.H_24_U1.sink 	"Time last packet consumed:" 	0
statistic is1_3l_32n.H_24_U1.sink 	"Waiting time statistics"
field count 0
field mean 0
field stddev -nan
field sum 0
field sqrsum 0
field min 0
field max 0
statistic is1_3l_32n.H_24_U1.sink 	"Packet Fabric Time"
field count 0
field mean 0
field stddev -nan
field sum 0
field sqrsum 0
field min 0
field max 0
bin	-INF	0
bin	0	0
bin	0.033333333333333	0
bin	0.066666666666667	0
bin	0.1	0
bin	0.13333333333333	0
bin	0.16666666666667	0
bin	0.2	0
bin	0.23333333333333	0
bin	0.26666666666667	0
bin	0.3	0
bin	0.33333333333333	0
bin	0.36666666666667	0
bin	0.4	0
bin	0.43333333333333	0
bin	0.46666666666667	0
bin	0.5	0
bin	0.53333333333333	0
bin	0.56666666666667	0
bin	0.6	0
bin	0.63333333333333	0
bin	0.66666666666667	0
bin	0.7	0
bin	0.73333333333333	0
bin	0.76666666666667	0
bin	0.8	0
bin	0.83333333333333	0
bin	0.86666666666667	0
bin	0.9	0
bin	0.93333333333333	0
bin	0.96666666666667	0
bin	1	0
statistic is1_3l_32n.H_24_U1.sink 	Msg-Network-Latency
field count 0
field mean 0
field stddev -nan
field sum 0
field sqrsum 0
field min 0
field max 0
bin	-INF	0
bin	-0.5	0
bin	-0.46666666666667	0
bin	-0.43333333333333	0
bin	-0.4	0
bin	-0.36666666666667	0
bin	-0.33333333333333	0
bin	-0.3	0
bin	-0.26666666666667	0
bin	-0.23333333333333	0
bin	-0.2	0
bin	-0.16666666666667	0
bin	-0.13333333333333	0
bin	-0.1	0
bin	-0.066666666666667	0
bin	-0.033333333333333	0
bin	0	0
bin	0.033333333333333	0
bin	0.066666666666667	0
bin	0.1	0
bin	0.13333333333333	0
bin	0.16666666666667	0
bin	0.2	0
bin	0.23333333333333	0
bin	0.26666666666667	0
bin	0.3	0
bin	0.33333333333333	0
bin	0.36666666666667	0
bin	0.4	0
bin	0.43333333333333	0
bin	0.46666666666667	0
bin	0.5	0
statistic is1_3l_32n.H_24_U1.sink 	Small-Msg-Network-Latency
field count 0
field mean 0
field stddev -nan
field sum 0
field sqrsum 0
field min 0
field max 0
bin	-INF	0
bin	-0.5	0
bin	-0.46666666666667	0
bin	-0.43333333333333	0
bin	-0.4	0
bin	-0.36666666666667	0
bin	-0.33333333333333	0
bin	-0.3	0
bin	-0.26666666666667	0
bin	-0.23333333333333	0
bin	-0.2	0
bin	-0.16666666666667	0
bin	-0.13333333333333	0
bin	-0.1	0
bin	-0.066666666666667	0
bin	-0.033333333333333	0
bin	0	0
bin	0.033333333333333	0
bin	0.066666666666667	0
bin	0.1	0
bin	0.13333333333333	0
bin	0.16666666666667	0
bin	0.2	0
bin	0.23333333333333	0
bin	0.26666666666667	0
bin	0.3	0
bin	0.33333333333333	0
bin	0.36666666666667	0
bin	0.4	0
bin	0.43333333333333	0
bin	0.46666666666667	0
bin	0.5	0
statistic is1_3l_32n.H_24_U1.sink 	Msg-First2First-Network-Latency
field count 0
field mean 0
field stddev -nan
field sum 0
field sqrsum 0
field min 0
field max 0
bin	-INF	0
bin	-0.5	0
bin	-0.46666666666667	0
bin	-0.43333333333333	0
bin	-0.4	0
bin	-0.36666666666667	0
bin	-0.33333333333333	0
bin	-0.3	0
bin	-0.26666666666667	0
bin	-0.23333333333333	0
bin	-0.2	0
bin	-0.16666666666667	0
bin	-0.13333333333333	0
bin	-0.1	0
bin	-0.066666666666667	0
bin	-0.033333333333333	0
bin	0	0
bin	0.033333333333333	0
bin	0.066666666666667	0
bin	0.1	0
bin	0.13333333333333	0
bin	0.16666666666667	0
bin	0.2	0
bin	0.23333333333333	0
bin	0.26666666666667	0
bin	0.3	0
bin	0.33333333333333	0
bin	0.36666666666667	0
bin	0.4	0
bin	0.43333333333333	0
bin	0.46666666666667	0
bin	0.5	0
statistic is1_3l_32n.H_24_U1.sink 	Enough-Pkts-Network-Latency
field count 0
field mean 0
field stddev -nan
field sum 0
field sqrsum 0
field min 0
field max 0
bin	-INF	0
bin	-0.5	0
bin	-0.46666666666667	0
bin	-0.43333333333333	0
bin	-0.4	0
bin	-0.36666666666667	0
bin	-0.33333333333333	0
bin	-0.3	0
bin	-0.26666666666667	0
bin	-0.23333333333333	0
bin	-0.2	0
bin	-0.16666666666667	0
bin	-0.13333333333333	0
bin	-0.1	0
bin	-0.066666666666667	0
bin	-0.033333333333333	0
bin	0	0
bin	0.033333333333333	0
bin	0.066666666666667	0
[...]
statistic is1_3l_32n.SW_L1_3_1_U1.port[4].obuf 	"Flits Sources"
field count 0
field mean 0
field stddev -nan
field sum 0
field sqrsum 0
field min 0
field max 0
scalar is1_3l_32n.SW_L1_3_1_U1.port[5].obuf 	"Output BW (Byte/s)" 	0
scalar is1_3l_32n.SW_L1_3_1_U1.port[5].obuf 	"Output BW (MB/s)" 	0
statistic is1_3l_32n.SW_L1_3_1_U1.port[5].obuf 	"Flits Sources"
field count 0
field mean 0
field stddev -nan
field sum 0
field sqrsum 0
field min 0
field max 0
scalar is1_3l_32n.SW_L1_3_1_U1.port[6].obuf 	"Output BW (Byte/s)" 	0
scalar is1_3l_32n.SW_L1_3_1_U1.port[6].obuf 	"Output BW (MB/s)" 	0
statistic is1_3l_32n.SW_L1_3_1_U1.port[6].obuf 	"Flits Sources"
field count 0
field mean 0
field stddev -nan
field sum 0
field sqrsum 0
field min 0
field max 0
scalar is1_3l_32n.SW_L1_3_1_U1.port[7].obuf 	"Output BW (Byte/s)" 	0
scalar is1_3l_32n.SW_L1_3_1_U1.port[7].obuf 	"Output BW (MB/s)" 	0
statistic is1_3l_32n.SW_L1_3_1_U1.port[7].obuf 	"Flits Sources"
field count 0
field mean 0
field stddev -nan
field sum 0
field sqrsum 0
field min 0
field max 0
scalar is1_3l_32n.SW_L2_0_0_U1.port[0].obuf 	"Output BW (Byte/s)" 	0
scalar is1_3l_32n.SW_L2_0_0_U1.port[0].obuf 	"Output BW (MB/s)" 	0
statistic is1_3l_32n.SW_L2_0_0_U1.port[0].obuf 	"Flits Sources"
field count 0
field mean 0
field stddev -nan
field sum 0
field sqrsum 0
field min 0
field max 0
scalar is1_3l_32n.SW_L2_0_0_U1.port[1].obuf 	"Output BW (Byte/s)" 	0
scalar is1_3l_32n.SW_L2_0_0_U1.port[1].obuf 	"Output BW (MB/s)" 	0
statistic is1_3l_32n.SW_L2_0_0_U1.port[1].obuf 	"Flits Sources"
field count 0
field mean 0
field stddev -nan
field sum 0
field sqrsum 0
field min 0
field max 0
scalar is1_3l_32n.SW_L2_0_0_U1.port[2].obuf 	"Output BW (Byte/s)" 	0
scalar is1_3l_32n.SW_L2_0_0_U1.port[2].obuf 	"Output BW (MB/s)" 	0
statistic is1_3l_32n.SW_L2_0_0_U1.port[2].obuf 	"Flits Sources"
field count 0
field mean 0
field stddev -nan
field sum 0
field sqrsum 0
field min 0
field max 0
scalar is1_3l_32n.SW_L2_0_0_U1.port[3].obuf 	"Output BW (Byte/s)" 	0
scalar is1_3l_32n.SW_L2_0_0_U1.port[3].obuf 	"Output BW (MB/s)" 	0
statistic is1_3l_32n.SW_L2_0_0_U1.port[3].obuf 	"Flits Sources"
field count 0
field mean 0
field stddev -nan
field sum 0
field sqrsum 0
field min 0
field max 0
scalar is1_3l_32n.SW_L2_0_0_U1.port[4].obuf 	"Output BW (Byte/s)" 	0
scalar is1_3l_32n.SW_L2_0_0_U1.port[4].obuf 	"Output BW (MB/s)" 	0
statistic is1_3l_32n.SW_L2_0_0_U1.port[4].obuf 	"Flits Sources"
field count 0
field mean 0
field stddev -nan
field sum 0
field sqrsum 0
field min 0
field max 0
scalar is1_3l_32n.SW_L2_0_0_U1.port[5].obuf 	"Output BW (Byte/s)" 	0
scalar is1_3l_32n.SW_L2_0_0_U1.port[5].obuf 	"Output BW (MB/s)" 	0
statistic is1_3l_32n.SW_L2_0_0_U1.port[5].obuf 	"Flits Sources"
field count 0
field mean 0
field stddev -nan
field sum 0
field sqrsum 0
field min 0
field max 0
scalar is1_3l_32n.SW_L2_0_0_U1.port[6].obuf 	"Output BW (Byte/s)" 	0
scalar is1_3l_32n.SW_L2_0_0_U1.port[6].obuf 	"Output BW (MB/s)" 	0
statistic is1_3l_32n.SW_L2_0_0_U1.port[6].obuf 	"Flits Sources"
field count 0
field mean 0
field stddev -nan
field sum 0
field sqrsum 0
field min 0
field max 0
scalar is1_3l_32n.SW_L2_0_0_U1.port[7].obuf 	"Output BW (Byte/s)" 	0
scalar is1_3l_32n.SW_L2_0_0_U1.port[7].obuf 	"Output BW (MB/s)" 	0
statistic is1_3l_32n.SW_L2_0_0_U1.port[7].obuf 	"Flits Sources"
field count 0
field mean 0
field stddev -nan
field sum 0
field sqrsum 0
field min 0
field max 0
scalar is1_3l_32n.SW_L2_0_1_U1.port[0].obuf 	"Output BW (Byte/s)" 	0
scalar is1_3l_32n.SW_L2_0_1_U1.port[0].obuf 	"Output BW (MB/s)" 	0
statistic is1_3l_32n.SW_L2_0_1_U1.port[0].obuf 	"Flits Sources"
field count 0
field mean 0
field stddev -nan
field sum 0
field sqrsum 0
field min 0
field max 0
scalar is1_3l_32n.SW_L2_0_1_U1.port[1].obuf 	"Output BW (Byte/s)" 	0
scalar is1_3l_32n.SW_L2_0_1_U1.port[1].obuf 	"Output BW (MB/s)" 	0
statistic is1_3l_32n.SW_L2_0_1_U1.port[1].obuf 	"Flits Sources"
field count 0
field mean 0
field stddev -nan
field sum 0
field sqrsum 0
field min 0
field max 0
scalar is1_3l_32n.SW_L2_0_1_U1.port[2].obuf 	"Output BW (Byte/s)" 	0
scalar is1_3l_32n.SW_L2_0_1_U1.port[2].obuf 	"Output BW (MB/s)" 	0
statistic is1_3l_32n.SW_L2_0_1_U1.port[2].obuf 	"Flits Sources"
field count 0
field mean 0
field stddev -nan
field sum 0
field sqrsum 0
field min 0
field max 0
scalar is1_3l_32n.SW_L2_0_1_U1.port[3].obuf 	"Output BW (Byte/s)" 	0
scalar is1_3l_32n.SW_L2_0_1_U1.port[3].obuf 	"Output BW (MB/s)" 	0
statistic is1_3l_32n.SW_L2_0_1_U1.port[3].obuf 	"Flits Sources"
field count 0
field mean 0
field stddev -nan
field sum 0
field sqrsum 0
field min 0
field max 0
scalar is1_3l_32n.SW_L2_0_1_U1.port[4].obuf 	"Output BW (Byte/s)" 	0
scalar is1_3l_32n.SW_L2_0_1_U1.port[4].obuf 	"Output BW (MB/s)" 	0
statistic is1_3l_32n.SW_L2_0_1_U1.port[4].obuf 	"Flits Sources"
field count 0
field mean 0
field stddev -nan
field sum 0
field sqrsum 0
field min 0
field max 0
scalar is1_3l_32n.SW_L2_0_1_U1.port[5].obuf 	"Output BW (Byte/s)" 	0
scalar is1_3l_32n.SW_L2_0_1_U1.port[5].obuf 	"Output BW (MB/s)" 	0
statistic is1_3l_32n.SW_L2_0_1_U1.port[5].obuf 	"Flits Sources"
field count 0
field mean 0
field stddev -nan
field sum 0
field sqrsum 0
field min 0
field max 0
scalar is1_3l_32n.SW_L2_0_1_U1.port[6].obuf 	"Output BW (Byte/s)" 	0
scalar is1_3l_32n.SW_L2_0_1_U1.port[6].obuf 	"Output BW (MB/s)" 	0
statistic is1_3l_32n.SW_L2_0_1_U1.port[6].obuf 	"Flits Sources"
field count 0
field mean 0
field stddev -nan
field sum 0
field sqrsum 0
field min 0
field max 0
scalar is1_3l_32n.SW_L2_0_1_U1.port[7].obuf 	"Output BW (Byte/s)" 	0
scalar is1_3l_32n.SW_L2_0_1_U1.port[7].obuf 	"Output BW (MB/s)" 	0
statistic is1_3l_32n.SW_L2_0_1_U1.port[7].obuf 	"Flits Sources"
field count 0
field mean 0
field stddev -nan
field sum 0
field sqrsum 0
field min 0
field max 0
scalar is1_3l_32n.SW_L2_1_0_U1.port[0].obuf 	"Output BW (Byte/s)" 	0
scalar is1_3l_32n.SW_L2_1_0_U1.port[0].obuf 	"Output BW (MB/s)" 	0
statistic is1_3l_32n.SW_L2_1_0_U1.port[0].obuf 	"Flits Sources"
field count 0
field mean 0
field stddev -nan
field sum 0
field sqrsum 0
field min 0
field max 0
scalar is1_3l_32n.SW_L2_1_0_U1.port[1].obuf 	"Output BW (Byte/s)" 	0
scalar is1_3l_32n.SW_L2_1_0_U1.port[1].obuf 	"Output BW (MB/s)" 	0
statistic is1_3l_32n.SW_L2_1_0_U1.port[1].obuf 	"Flits Sources"
field count 0
field mean 0
field stddev -nan
field sum 0
field sqrsum 0
field min 0
field max 0
scalar is1_3l_32n.SW_L2_1_0_U1.port[2].obuf 	"Output BW (Byte/s)" 	0
scalar is1_3l_32n.SW_L2_1_0_U1.port[2].obuf 	"Output BW (MB/s)" 	0
statistic is1_3l_32n.SW_L2_1_0_U1.port[2].obuf 	"Flits Sources"
field count 0
field mean 0
field stddev -nan
field sum 0
field sqrsum 0
field min 0
field max 0
scalar is1_3l_32n.SW_L2_1_0_U1.port[3].obuf 	"Output BW (Byte/s)" 	0
scalar is1_3l_32n.SW_L2_1_0_U1.port[3].obuf 	"Output BW (MB/s)" 	0
statistic is1_3l_32n.SW_L2_1_0_U1.port[3].obuf 	"Flits Sources"
field count 0
field mean 0
field stddev -nan
field sum 0
field sqrsum 0
field min 0
field max 0
scalar is1_3l_32n.SW_L2_1_0_U1.port[4].obuf 	"Output BW (Byte/s)" 	0
scalar is1_3l_32n.SW_L2_1_0_U1.port[4].obuf 	"Output BW (MB/s)" 	0
statistic is1_3l_32n.SW_L2_1_0_U1.port[4].obuf 	"Flits Sources"
field count 0
field mean 0
field stddev -nan
field sum 0
field sqrsum 0
field min 0
field max 0
scalar is1_3l_32n.SW_L2_1_0_U1.port[5].obuf 	"Output BW (Byte/s)" 	0
scalar is1_3l_32n.SW_L2_1_0_U1.port[5].obuf 	"Output BW (MB/s)" 	0
statistic is1_3l_32n.SW_L2_1_0_U1.port[5].obuf 	"Flits Sources"
field count 0
field mean 0
field stddev -nan
field sum 0
field sqrsum 0
field min 0
field max 0
scalar is1_3l_32n.SW_L2_1_0_U1.port[6].obuf 	"Output BW (Byte/s)" 	0
scalar is1_3l_32n.SW_L2_1_0_U1.port[6].obuf 	"Output BW (MB/s)" 	0
statistic is1_3l_32n.SW_L2_1_0_U1.port[6].obuf 	"Flits Sources"
field count 0
field mean 0
field stddev -nan
field sum 0
field sqrsum 0
field min 0
field max 0
scalar is1_3l_32n.SW_L2_1_0_U1.port[7].obuf 	"Output BW (Byte/s)" 	0
scalar is1_3l_32n.SW_L2_1_0_U1.port[7].obuf 	"Output BW (MB/s)" 	0
statistic is1_3l_32n.SW_L2_1_0_U1.port[7].obuf 	"Flits Sources"
field count 0
field mean 0
field stddev -nan
field sum 0
field sqrsum 0
field min 0
field max 0
scalar is1_3l_32n.SW_L2_1_1_U1.port[0].obuf 	"Output BW (Byte/s)" 	0
scalar is1_3l_32n.SW_L2_1_1_U1.port[0].obuf 	"Output BW (MB/s)" 	0
statistic is1_3l_32n.SW_L2_1_1_U1.port[0].obuf 	"Flits Sources"
field count 0
field mean 0
field stddev -nan
field sum 0
field sqrsum 0
field min 0
field max 0
scalar is1_3l_32n.SW_L2_1_1_U1.port[1].obuf 	"Output BW (Byte/s)" 	0
scalar is1_3l_32n.SW_L2_1_1_U1.port[1].obuf 	"Output BW (MB/s)" 	0
statistic is1_3l_32n.SW_L2_1_1_U1.port[1].obuf 	"Flits Sources"
field count 0
field mean 0
field stddev -nan
field sum 0
field sqrsum 0
field min 0
field max 0
scalar is1_3l_32n.SW_L2_1_1_U1.port[2].obuf 	"Output BW (Byte/s)" 	0
scalar is1_3l_32n.SW_L2_1_1_U1.port[2].obuf 	"Output BW (MB/s)" 	0
statistic is1_3l_32n.SW_L2_1_1_U1.port[2].obuf 	"Flits Sources"
field count 0
field mean 0
field stddev -nan
field sum 0
field sqrsum 0
field min 0
field max 0
scalar is1_3l_32n.SW_L2_1_1_U1.port[3].obuf 	"Output BW (Byte/s)" 	0
scalar is1_3l_32n.SW_L2_1_1_U1.port[3].obuf 	"Output BW (MB/s)" 	0
statistic is1_3l_32n.SW_L2_1_1_U1.port[3].obuf 	"Flits Sources"
field count 0
field mean 0
field stddev -nan
field sum 0
field sqrsum 0
field min 0
field max 0
scalar is1_3l_32n.SW_L2_1_1_U1.port[4].obuf 	"Output BW (Byte/s)" 	0
scalar is1_3l_32n.SW_L2_1_1_U1.port[4].obuf 	"Output BW (MB/s)" 	0
statistic is1_3l_32n.SW_L2_1_1_U1.port[4].obuf 	"Flits Sources"
field count 0
field mean 0
field stddev -nan
field sum 0
field sqrsum 0
field min 0
field max 0
scalar is1_3l_32n.SW_L2_1_1_U1.port[5].obuf 	"Output BW (Byte/s)" 	0
scalar is1_3l_32n.SW_L2_1_1_U1.port[5].obuf 	"Output BW (MB/s)" 	0
statistic is1_3l_32n.SW_L2_1_1_U1.port[5].obuf 	"Flits Sources"
field count 0
field mean 0
field stddev -nan
field sum 0
field sqrsum 0
field min 0
field max 0
scalar is1_3l_32n.SW_L2_1_1_U1.port[6].obuf 	"Output BW (Byte/s)" 	0
scalar is1_3l_32n.SW_L2_1_1_U1.port[6].obuf 	"Output BW (MB/s)" 	0
statistic is1_3l_32n.SW_L2_1_1_U1.port[6].obuf 	"Flits Sources"
field count 0
field mean 0
field stddev -nan
field sum 0
field sqrsum 0
field min 0
field max 0
scalar is1_3l_32n.SW_L2_1_1_U1.port[7].obuf 	"Output BW (Byte/s)" 	0
scalar is1_3l_32n.SW_L2_1_1_U1.port[7].obuf 	"Output BW (MB/s)" 	0
statistic is1_3l_32n.SW_L2_1_1_U1.port[7].obuf 	"Flits Sources"
field count 0
field mean 0
field stddev -nan
field sum 0
field sqrsum 0
field min 0
field max 0
scalar is1_3l_32n.SW_L2_2_0_U1.port[0].obuf 	"Output BW (Byte/s)" 	0
scalar is1_3l_32n.SW_L2_2_0_U1.port[0].obuf 	"Output BW (MB/s)" 	0
statistic is1_3l_32n.SW_L2_2_0_U1.port[0].obuf 	"Flits Sources"
field count 0
field mean 0
field stddev -nan
field sum 0
field sqrsum 0
field min 0
field max 0
scalar is1_3l_32n.SW_L2_2_0_U1.port[1].obuf 	"Output BW (Byte/s)" 	0
scalar is1_3l_32n.SW_L2_2_0_U1.port[1].obuf 	"Output BW (MB/s)" 	0
statistic is1_3l_32n.SW_L2_2_0_U1.port[1].obuf 	"Flits Sources"
field count 0
field mean 0
field stddev -nan
field sum 0
field sqrsum 0
field min 0
field max 0
scalar is1_3l_32n.SW_L2_2_0_U1.port[2].obuf 	"Output BW (Byte/s)" 	0
scalar is1_3l_32n.SW_L2_2_0_U1.port[2].obuf 	"Output BW (MB/s)" 	0
statistic is1_3l_32n.SW_L2_2_0_U1.port[2].obuf 	"Flits Sources"
field count 0
field mean 0
field stddev -nan
field sum 0
field sqrsum 0
field min 0
field max 0
scalar is1_3l_32n.SW_L2_2_0_U1.port[3].obuf 	"Output BW (Byte/s)" 	0
scalar is1_3l_32n.SW_L2_2_0_U1.port[3].obuf 	"Output BW (MB/s)" 	0
statistic is1_3l_32n.SW_L2_2_0_U1.port[3].obuf 	"Flits Sources"
field count 0
field mean 0
field stddev -nan
field sum 0
field sqrsum 0
field min 0
field max 0
scalar is1_3l_32n.SW_L2_2_0_U1.port[4].obuf 	"Output BW (Byte/s)" 	0
scalar is1_3l_32n.SW_L2_2_0_U1.port[4].obuf 	"Output BW (MB/s)" 	0
statistic is1_3l_32n.SW_L2_2_0_U1.port[4].obuf 	"Flits Sources"
field count 0
field mean 0
field stddev -nan
field sum 0
field sqrsum 0
field min 0
field max 0
scalar is1_3l_32n.SW_L2_2_0_U1.port[5].obuf 	"Output BW (Byte/s)" 	0
scalar is1_3l_32n.SW_L2_2_0_U1.port[5].obuf 	"Output BW (MB/s)" 	0
statistic is1_3l_32n.SW_L2_2_0_U1.port[5].obuf 	"Flits Sources"
field count 0
field mean 0
field stddev -nan
field sum 0
field sqrsum 0
field min 0
field max 0
scalar is1_3l_32n.SW_L2_2_0_U1.port[6].obuf 	"Output BW (Byte/s)" 	0
scalar is1_3l_32n.SW_L2_2_0_U1.port[6].obuf 	"Output BW (MB/s)" 	0
statistic is1_3l_32n.SW_L2_2_0_U1.port[6].obuf 	"Flits Sources"
field count 0
field mean 0
field stddev -nan
field sum 0
field sqrsum 0
field min 0
field max 0
scalar is1_3l_32n.SW_L2_2_0_U1.port[7].obuf 	"Output BW (Byte/s)" 	0
scalar is1_3l_32n.SW_L2_2_0_U1.port[7].obuf 	"Output BW (MB/s)" 	0
statistic is1_3l_32n.SW_L2_2_0_U1.port[7].obuf 	"Flits Sources"
field count 0
field mean 0
field stddev -nan
field sum 0
field sqrsum 0
field min 0
field max 0
scalar is1_3l_32n.SW_L2_2_1_U1.port[0].obuf 	"Output BW (Byte/s)" 	0
scalar is1_3l_32n.SW_L2_2_1_U1.port[0].obuf 	"Output BW (MB/s)" 	0
statistic is1_3l_32n.SW_L2_2_1_U1.port[0].obuf 	"Flits Sources"
field count 0
field mean 0
field stddev -nan
field sum 0
field sqrsum 0
field min 0
field max 0
scalar is1_3l_32n.SW_L2_2_1_U1.port[1].obuf 	"Output BW (Byte/s)" 	0
scalar is1_3l_32n.SW_L2_2_1_U1.port[1].obuf 	"Output BW (MB/s)" 	0
statistic is1_3l_32n.SW_L2_2_1_U1.port[1].obuf 	"Flits Sources"
field count 0
field mean 0
field stddev -nan
field sum 0
field sqrsum 0
field min 0
field max 0
scalar is1_3l_32n.SW_L2_2_1_U1.port[2].obuf 	"Output BW (Byte/s)" 	0
scalar is1_3l_32n.SW_L2_2_1_U1.port[2].obuf 	"Output BW (MB/s)" 	0
statistic is1_3l_32n.SW_L2_2_1_U1.port[2].obuf 	"Flits Sources"
field count 0
field mean 0
field stddev -nan
field sum 0
field sqrsum 0
field min 0
field max 0
scalar is1_3l_32n.SW_L2_2_1_U1.port[3].obuf 	"Output BW (Byte/s)" 	0
scalar is1_3l_32n.SW_L2_2_1_U1.port[3].obuf 	"Output BW (MB/s)" 	0
statistic is1_3l_32n.SW_L2_2_1_U1.port[3].obuf 	"Flits Sources"
field count 0
field mean 0
field stddev -nan
field sum 0
field sqrsum 0
field min 0
field max 0
scalar is1_3l_32n.SW_L2_2_1_U1.port[4].obuf 	"Output BW (Byte/s)" 	0
scalar is1_3l_32n.SW_L2_2_1_U1.port[4].obuf 	"Output BW (MB/s)" 	0
statistic is1_3l_32n.SW_L2_2_1_U1.port[4].obuf 	"Flits Sources"
field count 0
field mean 0
field stddev -nan
field sum 0
field sqrsum 0
field min 0
field max 0
scalar is1_3l_32n.SW_L2_2_1_U1.port[5].obuf 	"Output BW (Byte/s)" 	0
scalar is1_3l_32n.SW_L2_2_1_U1.port[5].obuf 	"Output BW (MB/s)" 	0
statistic is1_3l_32n.SW_L2_2_1_U1.port[5].obuf 	"Flits Sources"
field count 0
field mean 0
field stddev -nan
field sum 0
field sqrsum 0
field min 0
field max 0
scalar is1_3l_32n.SW_L2_2_1_U1.port[6].obuf 	"Output BW (Byte/s)" 	0
scalar is1_3l_32n.SW_L2_2_1_U1.port[6].obuf 	"Output BW (MB/s)" 	0
statistic is1_3l_32n.SW_L2_2_1_U1.port[6].obuf 	"Flits Sources"
field count 0
field mean 0
field stddev -nan
field sum 0
field sqrsum 0
field min 0
field max 0
scalar is1_3l_32n.SW_L2_2_1_U1.port[7].obuf 	"Output BW (Byte/s)" 	0
scalar is1_3l_32n.SW_L2_2_1_U1.port[7].obuf 	"Output BW (MB/s)" 	0
statistic is1_3l_32n.SW_L2_2_1_U1.port[7].obuf 	"Flits Sources"
field count 0
field mean 0
field stddev -nan
field sum 0
field sqrsum 0
field min 0
field max 0
scalar is1_3l_32n.SW_L2_3_0_U1.port[0].obuf 	"Output BW (Byte/s)" 	0
scalar is1_3l_32n.SW_L2_3_0_U1.port[0].obuf 	"Output BW (MB/s)" 	0
statistic is1_3l_32n.SW_L2_3_0_U1.port[0].obuf 	"Flits Sources"
field count 0
field mean 0
field stddev -nan
field sum 0
field sqrsum 0
field min 0
field max 0
scalar is1_3l_32n.SW_L2_3_0_U1.port[1].obuf 	"Output BW (Byte/s)" 	0
scalar is1_3l_32n.SW_L2_3_0_U1.port[1].obuf 	"Output BW (MB/s)" 	0
statistic is1_3l_32n.SW_L2_3_0_U1.port[1].obuf 	"Flits Sources"
field count 0
field mean 0
field stddev -nan
field sum 0
field sqrsum 0
field min 0
field max 0
scalar is1_3l_32n.SW_L2_3_0_U1.port[2].obuf 	"Output BW (Byte/s)" 	0
scalar is1_3l_32n.SW_L2_3_0_U1.port[2].obuf 	"Output BW (MB/s)" 	0
statistic is1_3l_32n.SW_L2_3_0_U1.port[2].obuf 	"Flits Sources"
field count 0
field mean 0
field stddev -nan
field sum 0
field sqrsum 0
field min 0
field max 0
scalar is1_3l_32n.SW_L2_3_0_U1.port[3].obuf 	"Output BW (Byte/s)" 	0
scalar is1_3l_32n.SW_L2_3_0_U1.port[3].obuf 	"Output BW (MB/s)" 	0
statistic is1_3l_32n.SW_L2_3_0_U1.port[3].obuf 	"Flits Sources"
field count 0
field mean 0
field stddev -nan
field sum 0
field sqrsum 0
field min 0
field max 0
scalar is1_3l_32n.SW_L2_3_0_U1.port[4].obuf 	"Output BW (Byte/s)" 	0
scalar is1_3l_32n.SW_L2_3_0_U1.port[4].obuf 	"Output BW (MB/s)" 	0
statistic is1_3l_32n.SW_L2_3_0_U1.port[4].obuf 	"Flits Sources"
field count 0
field mean 0
field stddev -nan
field sum 0
field sqrsum 0
field min 0
field max 0
scalar is1_3l_32n.SW_L2_3_0_U1.port[5].obuf 	"Output BW (Byte/s)" 	0
scalar is1_3l_32n.SW_L2_3_0_U1.port[5].obuf 	"Output BW (MB/s)" 	0
statistic is1_3l_32n.SW_L2_3_0_U1.port[5].obuf 	"Flits Sources"
field count 0
field mean 0
field stddev -nan
field sum 0
field sqrsum 0
field min 0
field max 0
scalar is1_3l_32n.SW_L2_3_0_U1.port[6].obuf 	"Output BW (Byte/s)" 	0
scalar is1_3l_32n.SW_L2_3_0_U1.port[6].obuf 	"Output BW (MB/s)" 	0
statistic is1_3l_32n.SW_L2_3_0_U1.port[6].obuf 	"Flits Sources"
field count 0
field mean 0
field stddev -nan
field sum 0
field sqrsum 0
field min 0
field max 0
scalar is1_3l_32n.SW_L2_3_0_U1.port[7].obuf 	"Output BW (Byte/s)" 	0
scalar is1_3l_32n.SW_L2_3_0_U1.port[7].obuf 	"Output BW (MB/s)" 	0
statistic is1_3l_32n.SW_L2_3_0_U1.port[7].obuf 	"Flits Sources"
field count 0
field mean 0
field stddev -nan
field sum 0
field sqrsum 0
field min 0
field max 0
scalar is1_3l_32n.SW_L2_3_1_U1.port[0].obuf 	"Output BW (Byte/s)" 	0
scalar is1_3l_32n.SW_L2_3_1_U1.port[0].obuf 	"Output BW (MB/s)" 	0
statistic is1_3l_32n.SW_L2_3_1_U1.port[0].obuf 	"Flits Sources"
field count 0
field mean 0
field stddev -nan
field sum 0
field sqrsum 0
field min 0
field max 0
scalar is1_3l_32n.SW_L2_3_1_U1.port[1].obuf 	"Output BW (Byte/s)" 	0
scalar is1_3l_32n.SW_L2_3_1_U1.port[1].obuf 	"Output BW (MB/s)" 	0
statistic is1_3l_32n.SW_L2_3_1_U1.port[1].obuf 	"Flits Sources"
field count 0
field mean 0
field stddev -nan
field sum 0
field sqrsum 0
field min 0
field max 0
scalar is1_3l_32n.SW_L2_3_1_U1.port[2].obuf 	"Output BW (Byte/s)" 	0
scalar is1_3l_32n.SW_L2_3_1_U1.port[2].obuf 	"Output BW (MB/s)" 	0
statistic is1_3l_32n.SW_L2_3_1_U1.port[2].obuf 	"Flits Sources"
field count 0
field mean 0
field stddev -nan
field sum 0
field sqrsum 0
field min 0
field max 0
scalar is1_3l_32n.SW_L2_3_1_U1.port[3].obuf 	"Output BW (Byte/s)" 	0
scalar is1_3l_32n.SW_L2_3_1_U1.port[3].obuf 	"Output BW (MB/s)" 	0
statistic is1_3l_32n.SW_L2_3_1_U1.port[3].obuf 	"Flits Sources"
field count 0
field mean 0
field stddev -nan
field sum 0
field sqrsum 0
field min 0
field max 0
scalar is1_3l_32n.SW_L2_3_1_U1.port[4].obuf 	"Output BW (Byte/s)" 	0
scalar is1_3l_32n.SW_L2_3_1_U1.port[4].obuf 	"Output BW (MB/s)" 	0
statistic is1_3l_32n.SW_L2_3_1_U1.port[4].obuf 	"Flits Sources"
field count 0
field mean 0
field stddev -nan
field sum 0
field sqrsum 0
field min 0
field max 0
scalar is1_3l_32n.SW_L2_3_1_U1.port[5].obuf 	"Output BW (Byte/s)" 	0
scalar is1_3l_32n.SW_L2_3_1_U1.port[5].obuf 	"Output BW (MB/s)" 	0
statistic is1_3l_32n.SW_L2_3_1_U1.port[5].obuf 	"Flits Sources"
field count 0
field mean 0
field stddev -nan
field sum 0
field sqrsum 0
field min 0
field max 0
scalar is1_3l_32n.SW_L2_3_1_U1.port[6].obuf 	"Output BW (Byte/s)" 	0
scalar is1_3l_32n.SW_L2_3_1_U1.port[6].obuf 	"Output BW (MB/s)" 	0
statistic is1_3l_32n.SW_L2_3_1_U1.port[6].obuf 	"Flits Sources"
field count 0
field mean 0
field stddev -nan
field sum 0
field sqrsum 0
field min 0
field max 0
scalar is1_3l_32n.SW_L2_3_1_U1.port[7].obuf 	"Output BW (Byte/s)" 	0
scalar is1_3l_32n.SW_L2_3_1_U1.port[7].obuf 	"Output BW (MB/s)" 	0
statistic is1_3l_32n.SW_L2_3_1_U1.port[7].obuf 	"Flits Sources"
field count 0
field mean 0
field stddev -nan
field sum 0
field sqrsum 0
field min 0
field max 0
