version 2
run OneHot-0-20210107-17:41:39-65
attr configname OneHot
attr datetime 20210107-17:41:39
attr experiment OneHot
attr inifile is1_1l_8n.ini
attr iterationvars ""
attr iterationvars2 $repetition=0
attr measurement ""
attr network ib_model.examples.is1_1l_8n.is1_1l_8n
attr processid 65
attr repetition 0
attr replication #0
attr resultdir results
attr runnumber 0
attr seedset 0

scalar is1_1l_8n.H_1_U1.sink 	"Time last packet consumed:" 	0.019999981728
statistic is1_1l_8n.H_1_U1.sink 	"Waiting time statistics"
field count 1010562
field mean 2.7232344971772e-05
field stddev 2.0880924284517e-07
field sum 27.519972999364
field sqrsum 0.00074947746010576
field min 2.70008e-05
field max 2.9598396e-05
statistic is1_1l_8n.H_1_U1.sink 	"Packet Fabric Time"
field count 252640
field mean 2.7133730289503e-05
field stddev 7.4831547185696e-08
field sum 6.85506562034
field sqrsum 0.00018600491637703
field min 2.70008e-05
field max 2.7376576e-05
bin	-INF	0
bin	0	0
bin	1.3609752e-06	0
bin	2.7219504e-06	0
bin	4.0829256e-06	0
bin	5.4439008e-06	0
bin	6.804876e-06	0
bin	8.1658512e-06	0
bin	9.5268264e-06	0
bin	1.08878016e-05	0
bin	1.22487768e-05	0
bin	1.3609752e-05	0
bin	1.49707272e-05	0
bin	1.63317024e-05	0
bin	1.76926776e-05	0
bin	1.90536528e-05	0
bin	2.0414628e-05	0
bin	2.17756032e-05	0
bin	2.31365784e-05	0
bin	2.44975536e-05	0
bin	2.58585288e-05	218470
bin	2.7219504e-05	34170
bin	2.85804792e-05	0
bin	2.99414544e-05	0
bin	3.13024296e-05	0
bin	3.26634048e-05	0
bin	3.402438e-05	0
bin	3.53853552e-05	0
bin	3.67463304e-05	0
bin	3.81073056e-05	0
bin	3.94682808e-05	0
bin	4.0829256e-05	0
statistic is1_1l_8n.H_1_U1.sink 	Msg-Network-Latency
field count 502
field mean 0.00026029954498008
field stddev 3.3922794777207e-05
field sum 0.13067037158
field sqrsum 3.4589967023406e-05
field min 2.345162e-05
field max 0.00026807
bin	-INF	0
bin	-9.844957e-05	0
bin	-8.2196078e-05	0
bin	-6.5942586e-05	0
bin	-4.9689094e-05	0
bin	-3.3435602e-05	0
bin	-1.718211e-05	0
bin	-9.2861799999999e-07	0
bin	1.5324874e-05	10
bin	3.1578366e-05	0
bin	4.7831858e-05	0
bin	6.408535e-05	0
bin	8.0338842e-05	0
bin	9.6592334e-05	0
bin	0.000112845826	0
bin	0.000129099318	0
bin	0.00014535281	0
bin	0.000161606302	0
bin	0.000177859794	0
bin	0.000194113286	0
bin	0.000210366778	0
bin	0.00022662027	6
bin	0.000242873762	0
bin	0.000259127254	486
bin	0.000275380746	0
bin	0.000291634238	0
bin	0.00030788773	0
bin	0.000324141222	0
bin	0.000340394714	0
bin	0.000356648206	0
bin	0.000372901698	0
bin	0.00038915519	0
statistic is1_1l_8n.H_1_U1.sink 	Small-Msg-Network-Latency
field count 10
field mean 2.3561558e-05
field stddev 6.6676496375881e-08
field sum 0.00023561558
field sqrsum 5.5515101656702e-09
field min 2.345162e-05
field max 2.3670696e-05
bin	-INF	0
bin	2.3342082e-05	0
bin	2.3356687066667e-05	0
bin	2.3371292133333e-05	0
bin	2.33858972e-05	0
bin	2.3400502266667e-05	0
bin	2.3415107333333e-05	0
bin	2.34297124e-05	0
bin	2.3444317466667e-05	1
bin	2.3458922533333e-05	0
bin	2.34735276e-05	0
bin	2.3488132666667e-05	1
bin	2.3502737733333e-05	0
bin	2.35173428e-05	2
bin	2.3531947866667e-05	0
bin	2.3546552933333e-05	1
bin	2.3561158e-05	1
bin	2.3575763066667e-05	0
bin	2.3590368133333e-05	2
bin	2.36049732e-05	0
bin	2.3619578266667e-05	0
bin	2.3634183333333e-05	1
bin	2.36487884e-05	0
bin	2.3663393466667e-05	1
bin	2.3677998533333e-05	0
bin	2.36926036e-05	0
bin	2.3707208666667e-05	0
bin	2.3721813733333e-05	0
bin	2.37364188e-05	0
bin	2.3751023866667e-05	0
bin	2.3765628933333e-05	0
bin	2.3780234e-05	0
statistic is1_1l_8n.H_1_U1.sink 	Msg-First2First-Network-Latency
field count 502
field mean 0.00026024453302789
field stddev 3.3921725165745e-05
field sum 0.13064275558
field sqrsum 3.4575555321942e-05
field min 2.340362e-05
field max 0.000268022
bin	-INF	0
bin	-9.849757e-05	0
bin	-8.2244078e-05	0
bin	-6.5990586e-05	0
bin	-4.9737094e-05	0
bin	-3.3483602e-05	0
bin	-1.723011e-05	0
bin	-9.7661800000002e-07	0
bin	1.5276874e-05	10
bin	3.1530366e-05	0
bin	4.7783858e-05	0
bin	6.403735e-05	0
bin	8.0290842e-05	0
bin	9.6544334e-05	0
bin	0.000112797826	0
bin	0.000129051318	0
bin	0.00014530481	0
bin	0.000161558302	0
bin	0.000177811794	0
bin	0.000194065286	0
bin	0.000210318778	0
bin	0.00022657227	6
bin	0.000242825762	0
bin	0.000259079254	486
bin	0.000275332746	0
bin	0.000291586238	0
bin	0.00030783973	0
bin	0.000324093222	0
bin	0.000340346714	0
bin	0.000356600206	0
bin	0.000372853698	0
bin	0.00038910719	0
statistic is1_1l_8n.H_1_U1.sink 	Enough-Pkts-Network-Latency
field count 0
field mean 0
field stddev -nan
field sum 0
field sqrsum 0
field min 0
field max 0
bin	-INF	0
bin	-0.5	0
bin	-0.46666666666667	0
bin	-0.43333333333333	0
bin	-0.4	0
bin	-0.36666666666667	0
bin	-0.33333333333333	0
bin	-0.3	0
bin	-0.26666666666667	0
bin	-0.23333333333333	0
bin	-0.2	0
bin	-0.16666666666667	0
bin	-0.13333333333333	0
bin	-0.1	0
bin	-0.066666666666667	0
bin	-0.033333333333333	0
bin	0	0
bin	0.033333333333333	0
bin	0.066666666666667	0
bin	0.1	0
bin	0.13333333333333	0
bin	0.16666666666667	0
bin	0.2	0
bin	0.23333333333333	0
bin	0.26666666666667	0
bin	0.3	0
bin	0.33333333333333	0
bin	0.36666666666667	0
bin	0.4	0
bin	0.43333333333333	0
bin	0.46666666666667	0
bin	0.5	0
statistic is1_1l_8n.H_1_U1.sink 	Last-to-Enough-Pkt-Arrival
field count 0
field mean 0
field stddev -nan
field sum 0
field sqrsum 0
field min 0
field max 0
scalar is1_1l_8n.H_1_U1.sink 	Sink-BW-MBps 	3250.0550752136
scalar is1_1l_8n.H_1_U1.sink 	VL-0-total-flits 	1015634
statistic is1_1l_8n.H_1_U1.sink 	OOO-Window-Pkts
field count 0
field mean 0
field stddev -nan
field sum 0
field sqrsum 0
field min 0
field max 0
scalar is1_1l_8n.H_1_U1.sink 	OO-IO-Packets-Ratio 	0
scalar is1_1l_8n.H_1_U1.sink 	Num-SRCs 	7
scalar is1_1l_8n.H_1_U1.obuf 	"Output BW (Byte/Sec)" 	571474028.5737
statistic is1_1l_8n.H_1_U1.obuf 	"Flits Sources"
field count 168820
field mean 1
field stddev 0
field sum 168820
field sqrsum 168820
field min 1
field max 1
scalar is1_1l_8n.H_2_U1.sink 	"Time last packet consumed:" 	0
statistic is1_1l_8n.H_2_U1.sink 	"Waiting time statistics"
field count 0
field mean 0
field stddev -nan
field sum 0
field sqrsum 0
field min 0
field max 0
statistic is1_1l_8n.H_2_U1.sink 	"Packet Fabric Time"
field count 0
field mean 0
field stddev -nan
field sum 0
field sqrsum 0
field min 0
field max 0
bin	-INF	0
bin	0	0
bin	0.033333333333333	0
bin	0.066666666666667	0
bin	0.1	0
bin	0.13333333333333	0
bin	0.16666666666667	0
bin	0.2	0
bin	0.23333333333333	0
bin	0.26666666666667	0
bin	0.3	0
bin	0.33333333333333	0
bin	0.36666666666667	0
bin	0.4	0
bin	0.43333333333333	0
bin	0.46666666666667	0
bin	0.5	0
bin	0.53333333333333	0
bin	0.56666666666667	0
bin	0.6	0
bin	0.63333333333333	0
bin	0.66666666666667	0
bin	0.7	0
bin	0.73333333333333	0
bin	0.76666666666667	0
bin	0.8	0
bin	0.83333333333333	0
bin	0.86666666666667	0
bin	0.9	0
bin	0.93333333333333	0
bin	0.96666666666667	0
bin	1	0
statistic is1_1l_8n.H_2_U1.sink 	Msg-Network-Latency
field count 0
field mean 0
field stddev -nan
field sum 0
field sqrsum 0
field min 0
field max 0
bin	-INF	0
bin	-0.5	0
bin	-0.46666666666667	0
bin	-0.43333333333333	0
bin	-0.4	0
bin	-0.36666666666667	0
bin	-0.33333333333333	0
bin	-0.3	0
bin	-0.26666666666667	0
bin	-0.23333333333333	0
bin	-0.2	0
bin	-0.16666666666667	0
bin	-0.13333333333333	0
bin	-0.1	0
bin	-0.066666666666667	0
bin	-0.033333333333333	0
bin	0	0
bin	0.033333333333333	0
bin	0.066666666666667	0
bin	0.1	0
bin	0.13333333333333	0
bin	0.16666666666667	0
bin	0.2	0
bin	0.23333333333333	0
bin	0.26666666666667	0
bin	0.3	0
bin	0.33333333333333	0
bin	0.36666666666667	0
bin	0.4	0
bin	0.43333333333333	0
bin	0.46666666666667	0
bin	0.5	0
statistic is1_1l_8n.H_2_U1.sink 	Small-Msg-Network-Latency
field count 0
field mean 0
field stddev -nan
field sum 0
field sqrsum 0
field min 0
field max 0
bin	-INF	0
bin	-0.5	0
bin	-0.46666666666667	0
bin	-0.43333333333333	0
bin	-0.4	0
bin	-0.36666666666667	0
bin	-0.33333333333333	0
bin	-0.3	0
bin	-0.26666666666667	0
bin	-0.23333333333333	0
bin	-0.2	0
bin	-0.16666666666667	0
bin	-0.13333333333333	0
bin	-0.1	0
bin	-0.066666666666667	0
bin	-0.033333333333333	0
bin	0	0
bin	0.033333333333333	0
bin	0.066666666666667	0
bin	0.1	0
bin	0.13333333333333	0
bin	0.16666666666667	0
bin	0.2	0
bin	0.23333333333333	0
bin	0.26666666666667	0
bin	0.3	0
bin	0.33333333333333	0
bin	0.36666666666667	0
bin	0.4	0
bin	0.43333333333333	0
bin	0.46666666666667	0
bin	0.5	0
statistic is1_1l_8n.H_2_U1.sink 	Msg-First2First-Network-Latency
field count 0
field mean 0
field stddev -nan
field sum 0
field sqrsum 0
field min 0
field max 0
bin	-INF	0
bin	-0.5	0
bin	-0.46666666666667	0
bin	-0.43333333333333	0
bin	-0.4	0
bin	-0.36666666666667	0
bin	-0.33333333333333	0
bin	-0.3	0
bin	-0.26666666666667	0
bin	-0.23333333333333	0
bin	-0.2	0
bin	-0.16666666666667	0
bin	-0.13333333333333	0
bin	-0.1	0
bin	-0.066666666666667	0
bin	-0.033333333333333	0
bin	0	0
bin	0.033333333333333	0
bin	0.066666666666667	0
bin	0.1	0
bin	0.13333333333333	0
bin	0.16666666666667	0
bin	0.2	0
bin	0.23333333333333	0
bin	0.26666666666667	0
bin	0.3	0
bin	0.33333333333333	0
bin	0.36666666666667	0
bin	0.4	0
bin	0.43333333333333	0
bin	0.46666666666667	0
bin	0.5	0
statistic is1_1l_8n.H_2_U1.sink 	Enough-Pkts-Network-Latency
field count 0
field mean 0
field stddev -nan
field sum 0
field sqrsum 0
field min 0
field max 0
bin	-INF	0
bin	-0.5	0
bin	-0.46666666666667	0
bin	-0.43333333333333	0
bin	-0.4	0
bin	-0.36666666666667	0
bin	-0.33333333333333	0
bin	-0.3	0
bin	-0.26666666666667	0
bin	-0.23333333333333	0
bin	-0.2	0
bin	-0.16666666666667	0
bin	-0.13333333333333	0
bin	-0.1	0
bin	-0.066666666666667	0
bin	-0.033333333333333	0
bin	0	0
bin	0.033333333333333	0
bin	0.066666666666667	0
bin	0.1	0
bin	0.13333333333333	0
bin	0.16666666666667	0
bin	0.2	0
bin	0.23333333333333	0
bin	0.26666666666667	0
bin	0.3	0
bin	0.33333333333333	0
bin	0.36666666666667	0
bin	0.4	0
bin	0.43333333333333	0
bin	0.46666666666667	0
bin	0.5	0
statistic is1_1l_8n.H_2_U1.sink 	Last-to-Enough-Pkt-Arrival
field count 0
field mean 0
field stddev -nan
field sum 0
field sqrsum 0
field min 0
field max 0
scalar is1_1l_8n.H_2_U1.sink 	Sink-BW-MBps 	0
scalar is1_1l_8n.H_2_U1.sink 	VL-0-total-flits 	0
statistic is1_1l_8n.H_2_U1.sink 	OOO-Window-Pkts
field count 0
field mean 0
field stddev -nan
field sum 0
field sqrsum 0
field min 0
field max 0
scalar is1_1l_8n.H_2_U1.sink 	OO-IO-Packets-Ratio 	-nan
scalar is1_1l_8n.H_2_U1.sink 	Num-SRCs 	0
scalar is1_1l_8n.H_2_U1.obuf 	"Output BW (Byte/Sec)" 	560219628.01098
statistic is1_1l_8n.H_2_U1.obuf 	"Flits Sources"
field count 169808
field mean 2
field stddev 0
field sum 339616
field sqrsum 679232
field min 2
field max 2
scalar is1_1l_8n.H_3_U1.sink 	"Time last packet consumed:" 	0
statistic is1_1l_8n.H_3_U1.sink 	"Waiting time statistics"
field count 0
field mean 0
field stddev -nan
field sum 0
field sqrsum 0
field min 0
field max 0
statistic is1_1l_8n.H_3_U1.sink 	"Packet Fabric Time"
field count 0
field mean 0
field stddev -nan
field sum 0
field sqrsum 0
field min 0
field max 0
bin	-INF	0
bin	0	0
bin	0.033333333333333	0
bin	0.066666666666667	0
bin	0.1	0
bin	0.13333333333333	0
bin	0.16666666666667	0
bin	0.2	0
bin	0.23333333333333	0
bin	0.26666666666667	0
bin	0.3	0
bin	0.33333333333333	0
bin	0.36666666666667	0
bin	0.4	0
bin	0.43333333333333	0
bin	0.46666666666667	0
bin	0.5	0
bin	0.53333333333333	0
bin	0.56666666666667	0
bin	0.6	0
bin	0.63333333333333	0
bin	0.66666666666667	0
bin	0.7	0
bin	0.73333333333333	0
bin	0.76666666666667	0
bin	0.8	0
bin	0.83333333333333	0
bin	0.86666666666667	0
bin	0.9	0
bin	0.93333333333333	0
bin	0.96666666666667	0
bin	1	0
statistic is1_1l_8n.H_3_U1.sink 	Msg-Network-Latency
field count 0
field mean 0
field stddev -nan
field sum 0
field sqrsum 0
field min 0
field max 0
bin	-INF	0
bin	-0.5	0
bin	-0.46666666666667	0
bin	-0.43333333333333	0
bin	-0.4	0
bin	-0.36666666666667	0
bin	-0.33333333333333	0
bin	-0.3	0
bin	-0.26666666666667	0
bin	-0.23333333333333	0
bin	-0.2	0
bin	-0.16666666666667	0
bin	-0.13333333333333	0
bin	-0.1	0
bin	-0.066666666666667	0
bin	-0.033333333333333	0
bin	0	0
bin	0.033333333333333	0
bin	0.066666666666667	0
bin	0.1	0
bin	0.13333333333333	0
bin	0.16666666666667	0
bin	0.2	0
bin	0.23333333333333	0
bin	0.26666666666667	0
bin	0.3	0
bin	0.33333333333333	0
bin	0.36666666666667	0
bin	0.4	0
bin	0.43333333333333	0
bin	0.46666666666667	0
bin	0.5	0
statistic is1_1l_8n.H_3_U1.sink 	Small-Msg-Network-Latency
field count 0
field mean 0
field stddev -nan
field sum 0
field sqrsum 0
field min 0
field max 0
bin	-INF	0
bin	-0.5	0
bin	-0.46666666666667	0
bin	-0.43333333333333	0
bin	-0.4	0
bin	-0.36666666666667	0
bin	-0.33333333333333	0
bin	-0.3	0
bin	-0.26666666666667	0
bin	-0.23333333333333	0
bin	-0.2	0
bin	-0.16666666666667	0
bin	-0.13333333333333	0
bin	-0.1	0
bin	-0.066666666666667	0
bin	-0.033333333333333	0
bin	0	0
bin	0.033333333333333	0
bin	0.066666666666667	0
bin	0.1	0
bin	0.13333333333333	0
bin	0.16666666666667	0
bin	0.2	0
bin	0.23333333333333	0
bin	0.26666666666667	0
bin	0.3	0
bin	0.33333333333333	0
bin	0.36666666666667	0
bin	0.4	0
bin	0.43333333333333	0
bin	0.46666666666667	0
bin	0.5	0
statistic is1_1l_8n.H_3_U1.sink 	Msg-First2First-Network-Latency
field count 0
field mean 0
field stddev -nan
field sum 0
field sqrsum 0
field min 0
field max 0
bin	-INF	0
bin	-0.5	0
bin	-0.46666666666667	0
bin	-0.43333333333333	0
bin	-0.4	0
bin	-0.36666666666667	0
bin	-0.33333333333333	0
bin	-0.3	0
bin	-0.26666666666667	0
bin	-0.23333333333333	0
bin	-0.2	0
bin	-0.16666666666667	0
bin	-0.13333333333333	0
bin	-0.1	0
bin	-0.066666666666667	0
bin	-0.033333333333333	0
bin	0	0
bin	0.033333333333333	0
bin	0.066666666666667	0
bin	0.1	0
bin	0.13333333333333	0
bin	0.16666666666667	0
bin	0.2	0
bin	0.23333333333333	0
bin	0.26666666666667	0
bin	0.3	0
bin	0.33333333333333	0
bin	0.36666666666667	0
bin	0.4	0
bin	0.43333333333333	0
bin	0.46666666666667	0
bin	0.5	0
statistic is1_1l_8n.H_3_U1.sink 	Enough-Pkts-Network-Latency
field count 0
field mean 0
field stddev -nan
field sum 0
field sqrsum 0
field min 0
field max 0
bin	-INF	0
bin	-0.5	0
bin	-0.46666666666667	0
bin	-0.43333333333333	0
bin	-0.4	0
bin	-0.36666666666667	0
bin	-0.33333333333333	0
bin	-0.3	0
bin	-0.26666666666667	0
bin	-0.23333333333333	0
bin	-0.2	0
bin	-0.16666666666667	0
bin	-0.13333333333333	0
bin	-0.1	0
bin	-0.066666666666667	0
bin	-0.033333333333333	0
bin	0	0
bin	0.033333333333333	0
bin	0.066666666666667	0
bin	0.1	0
bin	0.13333333333333	0
bin	0.16666666666667	0
bin	0.2	0
bin	0.23333333333333	0
bin	0.26666666666667	0
bin	0.3	0
bin	0.33333333333333	0
bin	0.36666666666667	0
bin	0.4	0
bin	0.43333333333333	0
bin	0.46666666666667	0
bin	0.5	0
statistic is1_1l_8n.H_3_U1.sink 	Last-to-Enough-Pkt-Arrival
field count 0
field mean 0
field stddev -nan
field sum 0
field sqrsum 0
field min 0
field max 0
scalar is1_1l_8n.H_3_U1.sink 	Sink-BW-MBps 	0
scalar is1_1l_8n.H_3_U1.sink 	VL-0-total-flits 	0
statistic is1_1l_8n.H_3_U1.sink 	OOO-Window-Pkts
field count 0
field mean 0
field stddev -nan
field sum 0
field sqrsum 0
field min 0
field max 0
scalar is1_1l_8n.H_3_U1.sink 	OO-IO-Packets-Ratio 	-nan
scalar is1_1l_8n.H_3_U1.sink 	Num-SRCs 	0
scalar is1_1l_8n.H_3_U1.obuf 	"Output BW (Byte/Sec)" 	560060428.00302
statistic is1_1l_8n.H_3_U1.obuf 	"Flits Sources"
field count 169776
field mean 3
field stddev 0
field sum 509328
field sqrsum 1527984
field min 3
field max 3
scalar is1_1l_8n.H_4_U1.sink 	"Time last packet consumed:" 	0
statistic is1_1l_8n.H_4_U1.sink 	"Waiting time statistics"
field count 0
field mean 0
field stddev -nan
field sum 0
field sqrsum 0
field min 0
field max 0
statistic is1_1l_8n.H_4_U1.sink 	"Packet Fabric Time"
field count 0
field mean 0
field stddev -nan
field sum 0
field sqrsum 0
field min 0
field max 0
bin	-INF	0
bin	0	0
bin	0.033333333333333	0
bin	0.066666666666667	0
bin	0.1	0
bin	0.13333333333333	0
bin	0.16666666666667	0
bin	0.2	0
bin	0.23333333333333	0
bin	0.26666666666667	0
bin	0.3	0
bin	0.33333333333333	0
bin	0.36666666666667	0
bin	0.4	0
bin	0.43333333333333	0
bin	0.46666666666667	0
bin	0.5	0
bin	0.53333333333333	0
bin	0.56666666666667	0
bin	0.6	0
bin	0.63333333333333	0
bin	0.66666666666667	0
bin	0.7	0
bin	0.73333333333333	0
bin	0.76666666666667	0
bin	0.8	0
bin	0.83333333333333	0
bin	0.86666666666667	0
bin	0.9	0
bin	0.93333333333333	0
bin	0.96666666666667	0
bin	1	0
statistic is1_1l_8n.H_4_U1.sink 	Msg-Network-Latency
field count 0
field mean 0
field stddev -nan
field sum 0
field sqrsum 0
field min 0
field max 0
bin	-INF	0
bin	-0.5	0
bin	-0.46666666666667	0
bin	-0.43333333333333	0
bin	-0.4	0
bin	-0.36666666666667	0
bin	-0.33333333333333	0
bin	-0.3	0
bin	-0.26666666666667	0
bin	-0.23333333333333	0
bin	-0.2	0
bin	-0.16666666666667	0
bin	-0.13333333333333	0
bin	-0.1	0
bin	-0.066666666666667	0
bin	-0.033333333333333	0
bin	0	0
bin	0.033333333333333	0
bin	0.066666666666667	0
bin	0.1	0
bin	0.13333333333333	0
bin	0.16666666666667	0
bin	0.2	0
bin	0.23333333333333	0
bin	0.26666666666667	0
bin	0.3	0
bin	0.33333333333333	0
bin	0.36666666666667	0
bin	0.4	0
bin	0.43333333333333	0
bin	0.46666666666667	0
bin	0.5	0
statistic is1_1l_8n.H_4_U1.sink 	Small-Msg-Network-Latency
field count 0
field mean 0
field stddev -nan
field sum 0
field sqrsum 0
field min 0
field max 0
bin	-INF	0
bin	-0.5	0
bin	-0.46666666666667	0
bin	-0.43333333333333	0
bin	-0.4	0
bin	-0.36666666666667	0
bin	-0.33333333333333	0
bin	-0.3	0
bin	-0.26666666666667	0
bin	-0.23333333333333	0
bin	-0.2	0
bin	-0.16666666666667	0
bin	-0.13333333333333	0
bin	-0.1	0
bin	-0.066666666666667	0
bin	-0.033333333333333	0
bin	0	0
bin	0.033333333333333	0
bin	0.066666666666667	0
bin	0.1	0
bin	0.13333333333333	0
bin	0.16666666666667	0
bin	0.2	0
bin	0.23333333333333	0
bin	0.26666666666667	0
bin	0.3	0
bin	0.33333333333333	0
bin	0.36666666666667	0
bin	0.4	0
bin	0.43333333333333	0
bin	0.46666666666667	0
bin	0.5	0
statistic is1_1l_8n.H_4_U1.sink 	Msg-First2First-Network-Latency
field count 0
field mean 0
field stddev -nan
field sum 0
field sqrsum 0
field min 0
field max 0
bin	-INF	0
bin	-0.5	0
bin	-0.46666666666667	0
bin	-0.43333333333333	0
bin	-0.4	0
bin	-0.36666666666667	0
bin	-0.33333333333333	0
bin	-0.3	0
bin	-0.26666666666667	0
bin	-0.23333333333333	0
bin	-0.2	0
bin	-0.16666666666667	0
bin	-0.13333333333333	0
bin	-0.1	0
bin	-0.066666666666667	0
bin	-0.033333333333333	0
bin	0	0
bin	0.033333333333333	0
bin	0.066666666666667	0
bin	0.1	0
bin	0.13333333333333	0
bin	0.16666666666667	0
bin	0.2	0
bin	0.23333333333333	0
bin	0.26666666666667	0
bin	0.3	0
bin	0.33333333333333	0
bin	0.36666666666667	0
bin	0.4	0
bin	0.43333333333333	0
bin	0.46666666666667	0
bin	0.5	0
statistic is1_1l_8n.H_4_U1.sink 	Enough-Pkts-Network-Latency
field count 0
field mean 0
field stddev -nan
field sum 0
field sqrsum 0
field min 0
field max 0
bin	-INF	0
bin	-0.5	0
bin	-0.46666666666667	0
bin	-0.43333333333333	0
bin	-0.4	0
bin	-0.36666666666667	0
bin	-0.33333333333333	0
bin	-0.3	0
bin	-0.26666666666667	0
bin	-0.23333333333333	0
bin	-0.2	0
bin	-0.16666666666667	0
bin	-0.13333333333333	0
bin	-0.1	0
bin	-0.066666666666667	0
bin	-0.033333333333333	0
bin	0	0
bin	0.033333333333333	0
bin	0.066666666666667	0
bin	0.1	0
bin	0.13333333333333	0
bin	0.16666666666667	0
bin	0.2	0
bin	0.23333333333333	0
bin	0.26666666666667	0
bin	0.3	0
bin	0.33333333333333	0
bin	0.36666666666667	0
bin	0.4	0
bin	0.43333333333333	0
bin	0.46666666666667	0
bin	0.5	0
statistic is1_1l_8n.H_4_U1.sink 	Last-to-Enough-Pkt-Arrival
field count 0
field mean 0
field stddev -nan
field sum 0
field sqrsum 0
field min 0
field max 0
scalar is1_1l_8n.H_4_U1.sink 	Sink-BW-MBps 	0
scalar is1_1l_8n.H_4_U1.sink 	VL-0-total-flits 	0
statistic is1_1l_8n.H_4_U1.sink 	OOO-Window-Pkts
field count 0
field mean 0
field stddev -nan
field sum 0
field sqrsum 0
field min 0
field max 0
scalar is1_1l_8n.H_4_U1.sink 	OO-IO-Packets-Ratio 	-nan
scalar is1_1l_8n.H_4_U1.sink 	Num-SRCs 	0
scalar is1_1l_8n.H_4_U1.obuf 	"Output BW (Byte/Sec)" 	559834827.99174
statistic is1_1l_8n.H_4_U1.obuf 	"Flits Sources"
field count 169728
field mean 4
field stddev 0
field sum 678912
field sqrsum 2715648
field min 4
field max 4
scalar is1_1l_8n.H_5_U1.sink 	"Time last packet consumed:" 	0
statistic is1_1l_8n.H_5_U1.sink 	"Waiting time statistics"
field count 0
field mean 0
field stddev -nan
field sum 0
field sqrsum 0
field min 0
field max 0
statistic is1_1l_8n.H_5_U1.sink 	"Packet Fabric Time"
field count 0
field mean 0
field stddev -nan
field sum 0
field sqrsum 0
field min 0
field max 0
bin	-INF	0
bin	0	0
bin	0.033333333333333	0
bin	0.066666666666667	0
bin	0.1	0
bin	0.13333333333333	0
bin	0.16666666666667	0
bin	0.2	0
bin	0.23333333333333	0
bin	0.26666666666667	0
bin	0.3	0
bin	0.33333333333333	0
bin	0.36666666666667	0
bin	0.4	0
bin	0.43333333333333	0
bin	0.46666666666667	0
bin	0.5	0
bin	0.53333333333333	0
bin	0.56666666666667	0
bin	0.6	0
bin	0.63333333333333	0
bin	0.66666666666667	0
bin	0.7	0
bin	0.73333333333333	0
bin	0.76666666666667	0
bin	0.8	0
bin	0.83333333333333	0
bin	0.86666666666667	0
bin	0.9	0
bin	0.93333333333333	0
bin	0.96666666666667	0
bin	1	0
statistic is1_1l_8n.H_5_U1.sink 	Msg-Network-Latency
field count 0
field mean 0
field stddev -nan
field sum 0
field sqrsum 0
field min 0
field max 0
bin	-INF	0
bin	-0.5	0
bin	-0.46666666666667	0
bin	-0.43333333333333	0
bin	-0.4	0
bin	-0.36666666666667	0
bin	-0.33333333333333	0
bin	-0.3	0
bin	-0.26666666666667	0
bin	-0.23333333333333	0
bin	-0.2	0
bin	-0.16666666666667	0
bin	-0.13333333333333	0
bin	-0.1	0
bin	-0.066666666666667	0
bin	-0.033333333333333	0
bin	0	0
bin	0.033333333333333	0
bin	0.066666666666667	0
bin	0.1	0
bin	0.13333333333333	0
bin	0.16666666666667	0
bin	0.2	0
bin	0.23333333333333	0
bin	0.26666666666667	0
bin	0.3	0
bin	0.33333333333333	0
bin	0.36666666666667	0
bin	0.4	0
bin	0.43333333333333	0
bin	0.46666666666667	0
bin	0.5	0
statistic is1_1l_8n.H_5_U1.sink 	Small-Msg-Network-Latency
field count 0
field mean 0
field stddev -nan
field sum 0
field sqrsum 0
field min 0
field max 0
bin	-INF	0
bin	-0.5	0
bin	-0.46666666666667	0
bin	-0.43333333333333	0
bin	-0.4	0
bin	-0.36666666666667	0
bin	-0.33333333333333	0
bin	-0.3	0
bin	-0.26666666666667	0
bin	-0.23333333333333	0
bin	-0.2	0
bin	-0.16666666666667	0
bin	-0.13333333333333	0
bin	-0.1	0
bin	-0.066666666666667	0
bin	-0.033333333333333	0
bin	0	0
bin	0.033333333333333	0
bin	0.066666666666667	0
bin	0.1	0
bin	0.13333333333333	0
bin	0.16666666666667	0
bin	0.2	0
bin	0.23333333333333	0
bin	0.26666666666667	0
bin	0.3	0
bin	0.33333333333333	0
bin	0.36666666666667	0
bin	0.4	0
bin	0.43333333333333	0
bin	0.46666666666667	0
bin	0.5	0
statistic is1_1l_8n.H_5_U1.sink 	Msg-First2First-Network-Latency
field count 0
field mean 0
field stddev -nan
field sum 0
field sqrsum 0
field min 0
field max 0
bin	-INF	0
bin	-0.5	0
bin	-0.46666666666667	0
bin	-0.43333333333333	0
bin	-0.4	0
bin	-0.36666666666667	0
bin	-0.33333333333333	0
bin	-0.3	0
bin	-0.26666666666667	0
bin	-0.23333333333333	0
bin	-0.2	0
bin	-0.16666666666667	0
bin	-0.13333333333333	0
bin	-0.1	0
bin	-0.066666666666667	0
bin	-0.033333333333333	0
bin	0	0
bin	0.033333333333333	0
bin	0.066666666666667	0
bin	0.1	0
bin	0.13333333333333	0
bin	0.16666666666667	0
bin	0.2	0
bin	0.23333333333333	0
bin	0.26666666666667	0
bin	0.3	0
bin	0.33333333333333	0
bin	0.36666666666667	0
bin	0.4	0
bin	0.43333333333333	0
bin	0.46666666666667	0
bin	0.5	0
statistic is1_1l_8n.H_5_U1.sink 	Enough-Pkts-Network-Latency
field count 0
field mean 0
field stddev -nan
field sum 0
field sqrsum 0
field min 0
field max 0
bin	-INF	0
bin	-0.5	0
bin	-0.46666666666667	0
bin	-0.43333333333333	0
bin	-0.4	0
bin	-0.36666666666667	0
bin	-0.33333333333333	0
bin	-0.3	0
bin	-0.26666666666667	0
bin	-0.23333333333333	0
bin	-0.2	0
bin	-0.16666666666667	0
bin	-0.13333333333333	0
bin	-0.1	0
bin	-0.066666666666667	0
bin	-0.033333333333333	0
bin	0	0
bin	0.033333333333333	0
bin	0.066666666666667	0
bin	0.1	0
bin	0.13333333333333	0
bin	0.16666666666667	0
bin	0.2	0
bin	0.23333333333333	0
bin	0.26666666666667	0
bin	0.3	0
bin	0.33333333333333	0
bin	0.36666666666667	0
bin	0.4	0
bin	0.43333333333333	0
bin	0.46666666666667	0
bin	0.5	0
statistic is1_1l_8n.H_5_U1.sink 	Last-to-Enough-Pkt-Arrival
field count 0
field mean 0
field stddev -nan
field sum 0
field sqrsum 0
field min 0
field max 0
scalar is1_1l_8n.H_5_U1.sink 	Sink-BW-MBps 	0
scalar is1_1l_8n.H_5_U1.sink 	VL-0-total-flits 	0
statistic is1_1l_8n.H_5_U1.sink 	OOO-Window-Pkts
field count 0
field mean 0
field stddev -nan
field sum 0
field sqrsum 0
field min 0
field max 0
scalar is1_1l_8n.H_5_U1.sink 	OO-IO-Packets-Ratio 	-nan
scalar is1_1l_8n.H_5_U1.sink 	Num-SRCs 	0
scalar is1_1l_8n.H_5_U1.obuf 	"Output BW (Byte/Sec)" 	558646027.9323
statistic is1_1l_8n.H_5_U1.obuf 	"Flits Sources"
field count 169548
field mean 5
field stddev 0
field sum 847740
field sqrsum 4238700
field min 5
field max 5
scalar is1_1l_8n.H_6_U1.sink 	"Time last packet consumed:" 	0
statistic is1_1l_8n.H_6_U1.sink 	"Waiting time statistics"
field count 0
field mean 0
field stddev -nan
field sum 0
field sqrsum 0
field min 0
field max 0
statistic is1_1l_8n.H_6_U1.sink 	"Packet Fabric Time"
field count 0
field mean 0
field stddev -nan
field sum 0
field sqrsum 0
field min 0
field max 0
bin	-INF	0
bin	0	0
bin	0.033333333333333	0
bin	0.066666666666667	0
bin	0.1	0
bin	0.13333333333333	0
bin	0.16666666666667	0
bin	0.2	0
bin	0.23333333333333	0
bin	0.26666666666667	0
bin	0.3	0
bin	0.33333333333333	0
bin	0.36666666666667	0
bin	0.4	0
bin	0.43333333333333	0
bin	0.46666666666667	0
bin	0.5	0
bin	0.53333333333333	0
bin	0.56666666666667	0
bin	0.6	0
bin	0.63333333333333	0
bin	0.66666666666667	0
bin	0.7	0
bin	0.73333333333333	0
bin	0.76666666666667	0
bin	0.8	0
bin	0.83333333333333	0
bin	0.86666666666667	0
bin	0.9	0
bin	0.93333333333333	0
bin	0.96666666666667	0
bin	1	0
statistic is1_1l_8n.H_6_U1.sink 	Msg-Network-Latency
field count 0
field mean 0
field stddev -nan
field sum 0
field sqrsum 0
field min 0
field max 0
bin	-INF	0
bin	-0.5	0
bin	-0.46666666666667	0
bin	-0.43333333333333	0
bin	-0.4	0
bin	-0.36666666666667	0
bin	-0.33333333333333	0
bin	-0.3	0
bin	-0.26666666666667	0
bin	-0.23333333333333	0
bin	-0.2	0
bin	-0.16666666666667	0
bin	-0.13333333333333	0
bin	-0.1	0
bin	-0.066666666666667	0
bin	-0.033333333333333	0
bin	0	0
bin	0.033333333333333	0
bin	0.066666666666667	0
bin	0.1	0
bin	0.13333333333333	0
bin	0.16666666666667	0
bin	0.2	0
bin	0.23333333333333	0
bin	0.26666666666667	0
bin	0.3	0
bin	0.33333333333333	0
bin	0.36666666666667	0
bin	0.4	0
bin	0.43333333333333	0
bin	0.46666666666667	0
bin	0.5	0
statistic is1_1l_8n.H_6_U1.sink 	Small-Msg-Network-Latency
field count 0
field mean 0
field stddev -nan
field sum 0
field sqrsum 0
field min 0
field max 0
bin	-INF	0
bin	-0.5	0
bin	-0.46666666666667	0
bin	-0.43333333333333	0
bin	-0.4	0
bin	-0.36666666666667	0
bin	-0.33333333333333	0
bin	-0.3	0
bin	-0.26666666666667	0
bin	-0.23333333333333	0
bin	-0.2	0
bin	-0.16666666666667	0
bin	-0.13333333333333	0
bin	-0.1	0
bin	-0.066666666666667	0
bin	-0.033333333333333	0
bin	0	0
bin	0.033333333333333	0
bin	0.066666666666667	0
bin	0.1	0
bin	0.13333333333333	0
bin	0.16666666666667	0
bin	0.2	0
bin	0.23333333333333	0
bin	0.26666666666667	0
bin	0.3	0
bin	0.33333333333333	0
bin	0.36666666666667	0
bin	0.4	0
bin	0.43333333333333	0
bin	0.46666666666667	0
bin	0.5	0
statistic is1_1l_8n.H_6_U1.sink 	Msg-First2First-Network-Latency
field count 0
field mean 0
field stddev -nan
field sum 0
field sqrsum 0
field min 0
field max 0
bin	-INF	0
bin	-0.5	0
bin	-0.46666666666667	0
bin	-0.43333333333333	0
bin	-0.4	0
bin	-0.36666666666667	0
bin	-0.33333333333333	0
bin	-0.3	0
bin	-0.26666666666667	0
bin	-0.23333333333333	0
bin	-0.2	0
bin	-0.16666666666667	0
bin	-0.13333333333333	0
bin	-0.1	0
bin	-0.066666666666667	0
bin	-0.033333333333333	0
bin	0	0
bin	0.033333333333333	0
bin	0.066666666666667	0
bin	0.1	0
bin	0.13333333333333	0
bin	0.16666666666667	0
bin	0.2	0
bin	0.23333333333333	0
bin	0.26666666666667	0
bin	0.3	0
bin	0.33333333333333	0
bin	0.36666666666667	0
bin	0.4	0
bin	0.43333333333333	0
bin	0.46666666666667	0
bin	0.5	0
statistic is1_1l_8n.H_6_U1.sink 	Enough-Pkts-Network-Latency
field count 0
field mean 0
field stddev -nan
field sum 0
field sqrsum 0
field min 0
field max 0
bin	-INF	0
bin	-0.5	0
bin	-0.46666666666667	0
bin	-0.43333333333333	0
bin	-0.4	0
bin	-0.36666666666667	0
bin	-0.33333333333333	0
bin	-0.3	0
bin	-0.26666666666667	0
bin	-0.23333333333333	0
bin	-0.2	0
bin	-0.16666666666667	0
bin	-0.13333333333333	0
bin	-0.1	0
bin	-0.066666666666667	0
bin	-0.033333333333333	0
bin	0	0
bin	0.033333333333333	0
bin	0.066666666666667	0
bin	0.1	0
bin	0.13333333333333	0
bin	0.16666666666667	0
bin	0.2	0
bin	0.23333333333333	0
bin	0.26666666666667	0
bin	0.3	0
bin	0.33333333333333	0
bin	0.36666666666667	0
bin	0.4	0
bin	0.43333333333333	0
bin	0.46666666666667	0
bin	0.5	0
statistic is1_1l_8n.H_6_U1.sink 	Last-to-Enough-Pkt-Arrival
field count 0
field mean 0
field stddev -nan
field sum 0
field sqrsum 0
field min 0
field max 0
scalar is1_1l_8n.H_6_U1.sink 	Sink-BW-MBps 	0
scalar is1_1l_8n.H_6_U1.sink 	VL-0-total-flits 	0
statistic is1_1l_8n.H_6_U1.sink 	OOO-Window-Pkts
field count 0
field mean 0
field stddev -nan
field sum 0
field sqrsum 0
field min 0
field max 0
scalar is1_1l_8n.H_6_U1.sink 	OO-IO-Packets-Ratio 	-nan
scalar is1_1l_8n.H_6_U1.sink 	Num-SRCs 	0
scalar is1_1l_8n.H_6_U1.obuf 	"Output BW (Byte/Sec)" 	557151627.85758
statistic is1_1l_8n.H_6_U1.obuf 	"Flits Sources"
field count 169288
field mean 6
field stddev 0
field sum 1015728
field sqrsum 6094368
field min 6
field max 6
scalar is1_1l_8n.H_7_U1.sink 	"Time last packet consumed:" 	0
statistic is1_1l_8n.H_7_U1.sink 	"Waiting time statistics"
field count 0
field mean 0
field stddev -nan
field sum 0
field sqrsum 0
field min 0
field max 0
statistic is1_1l_8n.H_7_U1.sink 	"Packet Fabric Time"
field count 0
field mean 0
field stddev -nan
field sum 0
field sqrsum 0
field min 0
field max 0
bin	-INF	0
bin	0	0
bin	0.033333333333333	0
bin	0.066666666666667	0
bin	0.1	0
bin	0.13333333333333	0
bin	0.16666666666667	0
bin	0.2	0
bin	0.23333333333333	0
bin	0.26666666666667	0
bin	0.3	0
bin	0.33333333333333	0
bin	0.36666666666667	0
bin	0.4	0
bin	0.43333333333333	0
bin	0.46666666666667	0
bin	0.5	0
bin	0.53333333333333	0
bin	0.56666666666667	0
bin	0.6	0
bin	0.63333333333333	0
bin	0.66666666666667	0
bin	0.7	0
bin	0.73333333333333	0
bin	0.76666666666667	0
bin	0.8	0
bin	0.83333333333333	0
bin	0.86666666666667	0
bin	0.9	0
bin	0.93333333333333	0
bin	0.96666666666667	0
bin	1	0
statistic is1_1l_8n.H_7_U1.sink 	Msg-Network-Latency
field count 0
field mean 0
field stddev -nan
field sum 0
field sqrsum 0
field min 0
field max 0
bin	-INF	0
bin	-0.5	0
bin	-0.46666666666667	0
bin	-0.43333333333333	0
bin	-0.4	0
bin	-0.36666666666667	0
bin	-0.33333333333333	0
bin	-0.3	0
bin	-0.26666666666667	0
bin	-0.23333333333333	0
bin	-0.2	0
bin	-0.16666666666667	0
bin	-0.13333333333333	0
bin	-0.1	0
bin	-0.066666666666667	0
bin	-0.033333333333333	0
bin	0	0
bin	0.033333333333333	0
bin	0.066666666666667	0
bin	0.1	0
bin	0.13333333333333	0
bin	0.16666666666667	0
bin	0.2	0
bin	0.23333333333333	0
bin	0.26666666666667	0
bin	0.3	0
bin	0.33333333333333	0
bin	0.36666666666667	0
bin	0.4	0
bin	0.43333333333333	0
bin	0.46666666666667	0
bin	0.5	0
statistic is1_1l_8n.H_7_U1.sink 	Small-Msg-Network-Latency
field count 0
field mean 0
field stddev -nan
field sum 0
field sqrsum 0
field min 0
field max 0
bin	-INF	0
bin	-0.5	0
bin	-0.46666666666667	0
bin	-0.43333333333333	0
bin	-0.4	0
bin	-0.36666666666667	0
bin	-0.33333333333333	0
bin	-0.3	0
bin	-0.26666666666667	0
bin	-0.23333333333333	0
bin	-0.2	0
bin	-0.16666666666667	0
bin	-0.13333333333333	0
bin	-0.1	0
bin	-0.066666666666667	0
bin	-0.033333333333333	0
bin	0	0
bin	0.033333333333333	0
bin	0.066666666666667	0
bin	0.1	0
bin	0.13333333333333	0
bin	0.16666666666667	0
bin	0.2	0
bin	0.23333333333333	0
bin	0.26666666666667	0
bin	0.3	0
bin	0.33333333333333	0
bin	0.36666666666667	0
bin	0.4	0
bin	0.43333333333333	0
bin	0.46666666666667	0
bin	0.5	0
statistic is1_1l_8n.H_7_U1.sink 	Msg-First2First-Network-Latency
field count 0
field mean 0
field stddev -nan
field sum 0
field sqrsum 0
field min 0
field max 0
bin	-INF	0
bin	-0.5	0
bin	-0.46666666666667	0
bin	-0.43333333333333	0
bin	-0.4	0
bin	-0.36666666666667	0
bin	-0.33333333333333	0
bin	-0.3	0
bin	-0.26666666666667	0
bin	-0.23333333333333	0
bin	-0.2	0
bin	-0.16666666666667	0
bin	-0.13333333333333	0
bin	-0.1	0
bin	-0.066666666666667	0
bin	-0.033333333333333	0
bin	0	0
bin	0.033333333333333	0
bin	0.066666666666667	0
bin	0.1	0
bin	0.13333333333333	0
bin	0.16666666666667	0
bin	0.2	0
bin	0.23333333333333	0
bin	0.26666666666667	0
bin	0.3	0
bin	0.33333333333333	0
bin	0.36666666666667	0
bin	0.4	0
bin	0.43333333333333	0
bin	0.46666666666667	0
bin	0.5	0
statistic is1_1l_8n.H_7_U1.sink 	Enough-Pkts-Network-Latency
field count 0
field mean 0
field stddev -nan
field sum 0
field sqrsum 0
field min 0
field max 0
bin	-INF	0
bin	-0.5	0
bin	-0.46666666666667	0
bin	-0.43333333333333	0
bin	-0.4	0
bin	-0.36666666666667	0
bin	-0.33333333333333	0
bin	-0.3	0
bin	-0.26666666666667	0
bin	-0.23333333333333	0
bin	-0.2	0
bin	-0.16666666666667	0
bin	-0.13333333333333	0
bin	-0.1	0
bin	-0.066666666666667	0
bin	-0.033333333333333	0
bin	0	0
bin	0.033333333333333	0
bin	0.066666666666667	0
bin	0.1	0
bin	0.13333333333333	0
bin	0.16666666666667	0
bin	0.2	0
bin	0.23333333333333	0
bin	0.26666666666667	0
bin	0.3	0
bin	0.33333333333333	0
bin	0.36666666666667	0
bin	0.4	0
bin	0.43333333333333	0
bin	0.46666666666667	0
bin	0.5	0
statistic is1_1l_8n.H_7_U1.sink 	Last-to-Enough-Pkt-Arrival
field count 0
field mean 0
field stddev -nan
field sum 0
field sqrsum 0
field min 0
field max 0
scalar is1_1l_8n.H_7_U1.sink 	Sink-BW-MBps 	0
scalar is1_1l_8n.H_7_U1.sink 	VL-0-total-flits 	0
statistic is1_1l_8n.H_7_U1.sink 	OOO-Window-Pkts
field count 0
field mean 0
field stddev -nan
field sum 0
field sqrsum 0
field min 0
field max 0
scalar is1_1l_8n.H_7_U1.sink 	OO-IO-Packets-Ratio 	-nan
scalar is1_1l_8n.H_7_U1.sink 	Num-SRCs 	0
scalar is1_1l_8n.H_7_U1.obuf 	"Output BW (Byte/Sec)" 	132400.00662
statistic is1_1l_8n.H_7_U1.obuf 	"Flits Sources"
field count 40
field mean 7
field stddev 0
field sum 280
field sqrsum 1960
field min 7
field max 7
scalar is1_1l_8n.H_8_U1.sink 	"Time last packet consumed:" 	0
statistic is1_1l_8n.H_8_U1.sink 	"Waiting time statistics"
field count 0
field mean 0
field stddev -nan
field sum 0
field sqrsum 0
field min 0
field max 0
statistic is1_1l_8n.H_8_U1.sink 	"Packet Fabric Time"
field count 0
field mean 0
field stddev -nan
field sum 0
field sqrsum 0
field min 0
field max 0
bin	-INF	0
bin	0	0
bin	0.033333333333333	0
bin	0.066666666666667	0
bin	0.1	0
bin	0.13333333333333	0
bin	0.16666666666667	0
bin	0.2	0
bin	0.23333333333333	0
bin	0.26666666666667	0
bin	0.3	0
bin	0.33333333333333	0
bin	0.36666666666667	0
bin	0.4	0
bin	0.43333333333333	0
bin	0.46666666666667	0
bin	0.5	0
bin	0.53333333333333	0
bin	0.56666666666667	0
bin	0.6	0
bin	0.63333333333333	0
bin	0.66666666666667	0
bin	0.7	0
bin	0.73333333333333	0
bin	0.76666666666667	0
bin	0.8	0
bin	0.83333333333333	0
bin	0.86666666666667	0
bin	0.9	0
bin	0.93333333333333	0
bin	0.96666666666667	0
bin	1	0
statistic is1_1l_8n.H_8_U1.sink 	Msg-Network-Latency
field count 0
field mean 0
field stddev -nan
field sum 0
field sqrsum 0
field min 0
field max 0
bin	-INF	0
bin	-0.5	0
bin	-0.46666666666667	0
bin	-0.43333333333333	0
bin	-0.4	0
bin	-0.36666666666667	0
bin	-0.33333333333333	0
bin	-0.3	0
bin	-0.26666666666667	0
bin	-0.23333333333333	0
bin	-0.2	0
bin	-0.16666666666667	0
bin	-0.13333333333333	0
bin	-0.1	0
bin	-0.066666666666667	0
bin	-0.033333333333333	0
bin	0	0
bin	0.033333333333333	0
bin	0.066666666666667	0
bin	0.1	0
bin	0.13333333333333	0
bin	0.16666666666667	0
bin	0.2	0
bin	0.23333333333333	0
bin	0.26666666666667	0
bin	0.3	0
bin	0.33333333333333	0
bin	0.36666666666667	0
bin	0.4	0
bin	0.43333333333333	0
bin	0.46666666666667	0
bin	0.5	0
statistic is1_1l_8n.H_8_U1.sink 	Small-Msg-Network-Latency
field count 0
field mean 0
field stddev -nan
field sum 0
field sqrsum 0
field min 0
field max 0
bin	-INF	0
bin	-0.5	0
bin	-0.46666666666667	0
bin	-0.43333333333333	0
bin	-0.4	0
bin	-0.36666666666667	0
bin	-0.33333333333333	0
bin	-0.3	0
bin	-0.26666666666667	0
bin	-0.23333333333333	0
bin	-0.2	0
bin	-0.16666666666667	0
bin	-0.13333333333333	0
bin	-0.1	0
bin	-0.066666666666667	0
bin	-0.033333333333333	0
bin	0	0
bin	0.033333333333333	0
bin	0.066666666666667	0
bin	0.1	0
bin	0.13333333333333	0
bin	0.16666666666667	0
bin	0.2	0
bin	0.23333333333333	0
bin	0.26666666666667	0
bin	0.3	0
bin	0.33333333333333	0
bin	0.36666666666667	0
bin	0.4	0
bin	0.43333333333333	0
bin	0.46666666666667	0
bin	0.5	0
statistic is1_1l_8n.H_8_U1.sink 	Msg-First2First-Network-Latency
field count 0
field mean 0
field stddev -nan
field sum 0
field sqrsum 0
field min 0
field max 0
bin	-INF	0
bin	-0.5	0
bin	-0.46666666666667	0
bin	-0.43333333333333	0
bin	-0.4	0
bin	-0.36666666666667	0
bin	-0.33333333333333	0
bin	-0.3	0
bin	-0.26666666666667	0
bin	-0.23333333333333	0
bin	-0.2	0
bin	-0.16666666666667	0
bin	-0.13333333333333	0
bin	-0.1	0
bin	-0.066666666666667	0
bin	-0.033333333333333	0
bin	0	0
bin	0.033333333333333	0
bin	0.066666666666667	0
bin	0.1	0
bin	0.13333333333333	0
bin	0.16666666666667	0
bin	0.2	0
bin	0.23333333333333	0
bin	0.26666666666667	0
bin	0.3	0
bin	0.33333333333333	0
bin	0.36666666666667	0
bin	0.4	0
bin	0.43333333333333	0
bin	0.46666666666667	0
bin	0.5	0
statistic is1_1l_8n.H_8_U1.sink 	Enough-Pkts-Network-Latency
field count 0
field mean 0
field stddev -nan
field sum 0
field sqrsum 0
field min 0
field max 0
bin	-INF	0
bin	-0.5	0
bin	-0.46666666666667	0
bin	-0.43333333333333	0
bin	-0.4	0
bin	-0.36666666666667	0
bin	-0.33333333333333	0
bin	-0.3	0
bin	-0.26666666666667	0
bin	-0.23333333333333	0
bin	-0.2	0
bin	-0.16666666666667	0
bin	-0.13333333333333	0
bin	-0.1	0
bin	-0.066666666666667	0
bin	-0.033333333333333	0
bin	0	0
bin	0.033333333333333	0
bin	0.066666666666667	0
bin	0.1	0
bin	0.13333333333333	0
bin	0.16666666666667	0
bin	0.2	0
bin	0.23333333333333	0
bin	0.26666666666667	0
bin	0.3	0
bin	0.33333333333333	0
bin	0.36666666666667	0
bin	0.4	0
bin	0.43333333333333	0
bin	0.46666666666667	0
bin	0.5	0
statistic is1_1l_8n.H_8_U1.sink 	Last-to-Enough-Pkt-Arrival
field count 0
field mean 0
field stddev -nan
field sum 0
field sqrsum 0
field min 0
field max 0
scalar is1_1l_8n.H_8_U1.sink 	Sink-BW-MBps 	0
scalar is1_1l_8n.H_8_U1.sink 	VL-0-total-flits 	0
statistic is1_1l_8n.H_8_U1.sink 	OOO-Window-Pkts
field count 0
field mean 0
field stddev -nan
field sum 0
field sqrsum 0
field min 0
field max 0
scalar is1_1l_8n.H_8_U1.sink 	OO-IO-Packets-Ratio 	-nan
scalar is1_1l_8n.H_8_U1.sink 	Num-SRCs 	0
scalar is1_1l_8n.H_8_U1.obuf 	"Output BW (Byte/Sec)" 	400.00002
statistic is1_1l_8n.H_8_U1.obuf 	"Flits Sources"
field count 0
field mean 0
field stddev -nan
field sum 0
field sqrsum 0
field min 0
field max 0
scalar is1_1l_8n.SW_L0_0_0_U1.port[0].obuf 	"Output BW (Byte/Sec)" 	3281874164.0937
statistic is1_1l_8n.SW_L0_0_0_U1.port[0].obuf 	"Flits Sources"
field count 1015820
field mean 3.5008840148845
field stddev 1.7066202089402
field sum 3556268
field sqrsum 15408708
field min 1
field max 7
scalar is1_1l_8n.SW_L0_0_0_U1.port[1].obuf 	"Output BW (Byte/Sec)" 	16832000.8416
statistic is1_1l_8n.SW_L0_0_0_U1.port[1].obuf 	"Flits Sources"
field count 0
field mean 0
field stddev -nan
field sum 0
field sqrsum 0
field min 0
field max 0
scalar is1_1l_8n.SW_L0_0_0_U1.port[2].obuf 	"Output BW (Byte/Sec)" 	16776800.83884
statistic is1_1l_8n.SW_L0_0_0_U1.port[2].obuf 	"Flits Sources"
field count 0
field mean 0
field stddev -nan
field sum 0
field sqrsum 0
field min 0
field max 0
scalar is1_1l_8n.SW_L0_0_0_U1.port[3].obuf 	"Output BW (Byte/Sec)" 	16703600.83518
statistic is1_1l_8n.SW_L0_0_0_U1.port[3].obuf 	"Flits Sources"
field count 0
field mean 0
field stddev -nan
field sum 0
field sqrsum 0
field min 0
field max 0
scalar is1_1l_8n.SW_L0_0_0_U1.port[4].obuf 	"Output BW (Byte/Sec)" 	16092800.80464
statistic is1_1l_8n.SW_L0_0_0_U1.port[4].obuf 	"Flits Sources"
field count 0
field mean 0
field stddev -nan
field sum 0
field sqrsum 0
field min 0
field max 0
scalar is1_1l_8n.SW_L0_0_0_U1.port[5].obuf 	"Output BW (Byte/Sec)" 	15429200.77146
statistic is1_1l_8n.SW_L0_0_0_U1.port[5].obuf 	"Flits Sources"
field count 0
field mean 0
field stddev -nan
field sum 0
field sqrsum 0
field min 0
field max 0
scalar is1_1l_8n.SW_L0_0_0_U1.port[6].obuf 	"Output BW (Byte/Sec)" 	4400.00022
statistic is1_1l_8n.SW_L0_0_0_U1.port[6].obuf 	"Flits Sources"
field count 0
field mean 0
field stddev -nan
field sum 0
field sqrsum 0
field min 0
field max 0
scalar is1_1l_8n.SW_L0_0_0_U1.port[7].obuf 	"Output BW (Byte/Sec)" 	400.00002
statistic is1_1l_8n.SW_L0_0_0_U1.port[7].obuf 	"Flits Sources"
field count 0
field mean 0
field stddev -nan
field sum 0
field sqrsum 0
field min 0
field max 0
